     576
 i =       97, E =     -4780.0901520650
  C        11.8587877355       14.0535523494        5.7415422130
  C        12.4563345642       12.8906410661        5.0232245928
  C        11.7045483316       12.1713735571        4.0818922152
  C        12.2809701696       11.1091573284        3.3895899082
  C        13.6216870383       10.7396943726        3.6170501606
  C        14.3549974797       11.4436621696        4.5901163638
  C        13.7820569581       12.5086507248        5.2815756014
  C        14.2612304717        9.6490026102        2.8436633260
  C        14.2563593430        9.6567991035        1.4219605145
  C        13.7430732679       10.7588837489        0.6680819332
  C        49.1269311694       21.2331254905        5.8796855702
  C        48.5501971156       22.4011565458        5.1526256848
  C        49.3002126291       23.0684499913        4.1716121969
  C        48.7332867729       24.1076173384        3.4384265170
  C        47.4027735057       24.5093003129        3.6671002734
  C        46.6718479672       23.8604692357        4.6806578173
  C        47.2342940673       22.8155454186        5.4099884538
  C        46.7724922081       25.5869880154        2.8698311721
  C        46.7613776734       25.5573487136        1.4480673813
  C        47.2612842369       24.4422456938        0.7045679744
  C        14.8602785776        8.5704542948        0.7086837271
  C        14.8921737866        8.5971448982        3.5203027735
  C        49.1132599992       21.2033920973       10.1453427022
  C        48.5278842724       22.3648059525       10.8725322228
  C        49.2671017836       23.0254553205       11.8654881543
  C        48.6907970194       24.0600268834       12.5969632524
  C        47.3604172935       24.4568670882       12.3586870169
  C        46.6400150212       23.8120303371       11.3351128109
  C        47.2135483289       22.7761095263       10.6033253927
  C        46.7219719273       25.5318500153       13.1497152902
  C        46.7335895441       25.5281688985       14.5714236417
  C        47.2490002022       24.4289427344       15.3278058653
  C        40.6203977344       17.1370921650       15.3101121572
  C        40.6310224726       17.1416119235       12.4999313291
  C        11.8830179029       14.0865712430       10.2855208832
  C        12.4723822432       12.9108458669       10.9898478965
  C        11.7147474324       12.1774190495       11.9156884240
  C        12.2813250266       11.0949490678       12.5840942941
  C        13.6202548897       10.7214500621       12.3525292636
  C        14.3583980459       11.4373014416       11.3920742103
  C        13.7929776191       12.5184876855       10.7193892002
  C        14.2537889059        9.6246033151       13.1228940340
  C        14.2524331631        9.6444592086       14.5447358704
  C        13.7424947173       10.7533614734       15.2918294384
  C        22.5110345308        3.2451127376        5.7496066299
  C        23.2227985666        4.3488937268        5.0431096135
  C        24.2177614964        4.0656325322        4.0954274362
  C        24.8460930634        5.1022933882        3.4097089092
  C        24.4960339284        6.4459583841        3.6504530936
  C        23.5270781147        6.7205868800        4.6331907457
  C        22.8942368875        5.6857271884        5.3176042386
  C        25.1099953864        7.5509059448        2.8772006441
  C        25.0956798395        7.5442742137        1.4549836232
  C        24.3981070762        6.5474725504        0.7013546474
  C        38.3034902187       31.9291713079        5.8485855838
  C        37.5761607528       30.8381389270        5.1382035776
  C        36.6184826447       31.1393649692        4.1578579077
  C        36.0042858531       30.1171937504        3.4393755995
  C        36.3327096597       28.7686767731        3.6801495090
  C        37.2607404774       28.4749102951        4.6968710915
  C        37.8792746004       29.4957903271        5.4138081325
  C        35.7331117754       27.6751303229        2.8829518089
  C        35.7669383182       27.6887909509        1.4616168384
  C        36.4735181182       28.6908447864        0.7244936529
  C        25.7280959273        8.6128828502        0.7408981049
  C        25.7055200283        8.6238957340        3.5532518595
  C        38.3290929249       31.9621393738       10.1559826977
  C        37.6086817331       30.8876398829       10.8974475697
  C        36.6814318006       31.1940769582       11.9050308656
  C        36.0737506019       30.1737959207       12.6342038795
  C        36.3791631130       28.8219594232       12.3788794231
  C        37.2836638852       28.5254782535       11.3409892971
  C        37.8935533407       29.5422169994       10.6133079930
  C        35.7741333653       27.7210248843       13.1627064564
  C        35.7878033584       27.7124033253       14.5846134459
  C        36.4830342810       28.7024326179       15.3477345800
  C        46.1355819219       26.6208070446       15.2815641519
  C        46.0880970569       26.5802618067       12.4736656305
  C        22.4691896298        3.2583832485       10.2569797506
  C        23.1800966380        4.3656742779       10.9707304709
  C        24.1878402595        4.0755107589       11.9050000132
  C        24.8307652899        5.1023497104       12.5936149281
  C        24.4883206686        6.4519019374       12.3729010056
  C        23.5049615745        6.7352286360       11.4056762105
  C        22.8575234798        5.7085612804       10.7169975121
  C        25.1266421136        7.5466406340       13.1507327992
  C        25.1050725371        7.5414162576       14.5742631477
  C        24.4002537111        6.5474265332       15.3243666713
  C        26.6231480780       17.8637879533        5.7828113549
  C        25.3165894682       17.9067761566        5.0571971786
  C        25.0594612596       18.8989136838        4.0976954777
  C        23.8464873175       18.9184953005        3.4115965381
  C        22.8534793349       17.9496802740        3.6630132887
  C        23.1074351374       16.9799547105        4.6514618093
  C        24.3225042491       16.9543730338        5.3346581289
  C        21.5797384373       17.9350101940        2.8992104900
  C        21.5796002109       17.9118028243        1.4765731594
  C        22.7848415333       17.7848680714        0.7160519740
  C        34.4351138659       17.1965855002        5.9169715489
  C        35.7252140110       17.1539218686        5.1680841331
  C        35.9255248113       16.1999189477        4.1581402849
  C        37.1065418566       16.1927599410        3.4211301178
  C        38.1204563167       17.1374410670        3.6743875542
  C        37.9220796452       18.0721076641        4.7085915854
  C        36.7379605470       18.0856423599        5.4420961061
  C        39.3749081551       17.1500669972        2.8878433046
  C        39.3682918827       17.1682757432        1.4660273294
  C        38.1608007396       17.2988827162        0.7103712522
  C        20.3327978061       17.9311145624        0.7682188781
  C        20.3548797122       17.9390210368        3.5816728332
  C        34.4221556095       17.2164854596       10.2239167940
  C        35.7292990305       17.1373646343       10.9345397167
  C        35.9453877016       16.1738492101       11.9311574044
  C        37.1413058366       16.1585728738       12.6435099777
  C        38.1493263546       17.1069422588       12.3805832657
  C        37.9395836924       18.0425277479       11.3500171201
  C        36.7430073901       18.0622081083       10.6392157682
  C        39.4013524469       17.1353428072       13.1684065647
  C        39.3816005393       17.1610592050       14.5896681599
  C        38.1666221960       17.2936369133       15.3336191059
  C        35.1586327171       26.6324962442       15.2884322339
  C        35.1824367068       26.6513767573       12.4793709538
  C        26.5709147523       17.8276734479       10.3244660555
  C        25.2565159433       17.8742827903       11.0298088377
  C        24.9960713079       18.8745767653       11.9786988057
  C        23.7785681041       18.9000649870       12.6529218153
  C        22.7922138001       17.9251388299       12.4023366455
  C        23.0469666913       16.9503087729       11.4206535674
  C        24.2651090433       16.9226987655       10.7444881384
  C        21.5291626482       17.9059326181       13.1761644536
  C        21.5536129261       17.8956137364       14.5978481435
  C        22.7719609011       17.7771466963       15.3395461990
  C        14.0469964187       17.8289511484       10.2891051295
  C        15.3512225232       17.8862689378       11.0145929272
  C        15.6071154319       18.8887088606       11.9633364591
  C        16.8159536740       18.9097816882       12.6565077019
  C        17.8035717709       17.9312915465       12.4234127523
  C        17.5524069536       16.9532232713       11.4424622403
  C        16.3430421679       16.9274987300       10.7508151908
  C        19.0727913476       17.9144270193       13.1924255243
  C        19.0720214657       17.9115209929       14.6150197468
  C        17.8652717876       17.8133607495       15.3767244756
  C        46.8026972187       17.2178720853       10.1573611964
  C        45.5092517585       17.1540522134       10.8985705889
  C        45.2998340484       16.1758953075       11.8830763763
  C        44.1156100078       16.1573617481       12.6156206180
  C        43.1102022010       17.1170040759       12.3861030017
  C        43.3161018372       18.0734727187       11.3735043571
  C        44.5010951578       18.0959929693       10.6420416313
  C        41.8569677467       17.1319963758       13.1759043113
  C        41.8655509592       17.1411074882       14.5981742539
  C        43.0761185448       17.2356390247       15.3545507677
  C        20.3190636498       17.9218424109       15.3230487834
  C        20.2968404511       17.8951190216       12.5099399109
  C        46.7851628540       17.2330915246        5.8862707246
  C        45.4829941778       17.1326516420        5.1663510968
  C        45.2629953170       16.1387976478        4.2005204475
  C        44.0753351039       16.1172004748        3.4728582686
  C        43.0774382454       17.0865748676        3.6933231574
  C        43.2883371467       18.0507934224        4.6967621460
  C        44.4768996231       18.0787138110        5.4195159656
  C        41.8298595219       17.1138043712        2.8974898379
  C        41.8519675387       17.1306764740        1.4761903737
  C        43.0696994328       17.2279999151        0.7316616751
  C        46.1533513235       26.6372312743        0.7263269858
  C        46.1626166085       26.6561508664        3.5359631654
  C        14.0463006917       17.8320486807        5.7087787797
  C        15.3677851337       17.9070032828        5.0190432132
  C        15.6414027229       18.9219725651        4.0899005801
  C        16.8707642335       18.9595554138        3.4356088485
  C        17.8547348838       17.9813225834        3.6841922406
  C        17.5880702013       16.9956570506        4.6519579750
  C        16.3607462782       16.9575218266        5.3098182413
  C        19.1221811593       17.9561495023        2.9150170304
  C        19.0978230115       17.9315718642        1.4934296086
  C        17.8778691231       17.8222777793        0.7529603490
  C        28.8175756344       14.1426519572       10.4088634546
  C        28.2396736605       12.9553256481       11.1020294279
  C        28.9663912122       12.2259346985       12.0550358530
  C        28.3817501866       11.1340988051       12.6951068688
  C        27.0559660251       10.7465157067       12.4092755707
  C        26.3534494829       11.4570027993       11.4189765263
  C        26.9347721409       12.5463307661       10.7769996852
  C        26.3889485942        9.6570761849       13.1619077110
  C        26.3583661480        9.6841766305       14.5831217565
  C        26.8490919462       10.7990644363       15.3343930513
  C        32.1803285273       21.2358143545       10.1454464571
  C        32.7764067343       22.4018526416       10.8621913633
  C        32.0320658657       23.0765146396       11.8422916593
  C        32.6052696990       24.1149599822       12.5698491584
  C        33.9381760682       24.5064708605       12.3385330914
  C        34.6644362956       23.8508366467       11.3264897321
  C        34.0938297254       22.8070935110       10.6005555197
  C        34.5698474764       25.5802258094       13.1388063562
  C        34.5656245154       25.5495233662       14.5604132707
  C        34.0583515326       24.4336253984       15.2983218812
  C        25.7384497613        8.6072300027       15.2954827167
  C        25.7559792155        8.6063747402       12.4819731254
  C        32.1042793837       21.2217016538        5.8774729760
  C        32.6966528900       22.3700146319        5.1301843654
  C        31.9646732252       23.0317444412        4.1320366384
  C        32.5481143264       24.0608106656        3.3962739432
  C        33.8770435749       24.4592322345        3.6413365307
  C        34.5917257274       23.8108354476        4.6667240393
  C        34.0134920719       22.7758595742        5.3969138543
  C        34.5198155549       25.5403013305        2.8588970157
  C        34.5391604629       25.5296006652        1.4372094680
  C        34.0447538232       24.4247049015        0.6750516230
  C        40.6131927044       17.1362884035        0.7549386313
  C        40.5999594954       17.1398348414        3.5649830809
  C        28.7478300985       14.0667593793        5.8190451399
  C        28.1395904154       12.9184321486        5.0814926483
  C        28.8763585648       12.2230457871        4.1104458163
  C        28.2975871028       11.1650797924        3.4130527339
  C        26.9651569726       10.7759841574        3.6592374862
  C        26.2455064407       11.4592457076        4.6575682392
  C        26.8229762693       12.5171960768        5.3576313475
  C        26.3251951204        9.6863630573        2.8821614865
  C        26.3257382743        9.6999696632        1.4599641172
  C        26.8314062702       10.8079960266        0.7101947459
  C        18.1355524168        3.1811429594       10.3171405380
  C        17.4061584490        4.2783328341       11.0155633789
  C        16.3903617235        3.9999165729       11.9430138172
  C        15.7426283865        5.0398493796       12.6065540089
  C        16.0945390381        6.3836075468       12.3669862416
  C        17.0839374880        6.6531740588       11.4032381413
  C        17.7330839774        5.6158884672       10.7381418787
  C        15.4702033221        7.4912488927       13.1301208853
  C        15.4854028388        7.4904435974       14.5518440565
  C        16.1869581644        6.4968161576       15.3050010151
  C        42.9459862473       31.8596259028       10.0729217218
  C        43.6464180254       30.7719698191       10.8168565766
  C        44.5918089071       31.0933117253       11.8030568451
  C        45.1975316325       30.0877661571       12.5507170613
  C        44.8712835029       28.7346732991       12.3357447748
  C        43.9456481714       28.4203344064       11.3223499091
  C        43.3368155548       29.4254597206       10.5743041233
  C        45.4888315282       27.6553585553       13.1389427154
  C        45.4929149482       27.6809555868       14.5606379117
  C        44.8058485585       28.6890098103       15.3072708760
  C        14.8564444326        8.5629227026       15.2642459727
  C        14.8750347768        8.5631155182       12.4515690179
  C        42.9465394206       31.9616874989        5.8089888550
  C        43.6918553619       30.8855680798        5.0955800168
  C        44.6563091844       31.1914775898        4.1231386360
  C        45.2778558302       30.1718874231        3.4054326438
  C        44.9542544792       28.8215454796        3.6431957676
  C        44.0209700928       28.5238926461        4.6541717783
  C        43.3926853905       29.5406516474        5.3663377940
  C        45.5632375433       27.7241247349        2.8579312111
  C        45.5334424777       27.7174166346        1.4366318320
  C        44.8271239924       28.7076417835        0.6836654202
  C        35.1467463986       26.6213810243        0.7333452089
  C        35.1278968324       26.5996978964        3.5431420713
  C        18.1489219289        3.2470991502        5.7067767749
  C        17.4304266972        4.3439436066        4.9974872534
  C        16.4151035346        4.0526748309        4.0740171851
  C        15.7668074321        5.0832838808        3.3985985044
  C        16.1215644275        6.4285329231        3.6211497037
  C        17.1130874808        6.7119161548        4.5782699515
  C        17.7607578913        5.6830250881        5.2580863776
  C        15.4909467957        7.5241771512        2.8487032437
  C        15.4966032288        7.5074066547        1.4275631685
  C        16.1932734383        6.5056723029        0.6808191153
  H        10.6722983359       12.4652140579        3.9051040328
  H        11.6946206232       10.5504057682        2.6633075065
  H        15.3921928535       11.1694685287        4.7715210988
  H        14.3516752071       13.0722198176        6.0166266990
  H        13.3760674504       11.6309970289        1.2014166314
  H        50.3229136110       22.7483906473        3.9868492438
  H        49.3197876813       24.6228649726        2.6808470177
  H        45.6423892949       24.1613171614        4.8638872592
  H        46.6633420380       22.2903345710        6.1721471089
  H        47.6298832975       23.5758944176        1.2462546634
  H        14.8727541074        8.5885236958        4.6086149356
  H        50.2871374559       22.7025615548       12.0603951048
  H        49.2692274544       24.5754396261       13.3604682737
  H        45.6106463357       24.1093669497       11.1460092202
  H        46.6527538307       22.2539967029        9.8317089715
  H        47.6078312155       23.5518489370       14.7969008536
  H        40.6345259761       17.0988404823       11.4124027117
  H        48.6869933640       14.0951502039        7.7999434740
  H        10.6811808602       12.4662878622       12.0928579092
  H        11.6894488214       10.5243435088       13.2965517413
  H        15.3939697333       11.1597248964       11.2064570448
  H        14.3654978166       13.0881272943        9.9912113680
  H        13.3756621019       11.6219787074       14.7532006004
  H        47.9301668796       14.2186379303        9.7110415440
  H        47.7799879229       14.3737298151        6.4951705938
  H        49.0833867052       18.5521772832       10.8672349782
  H        10.4160839069       14.1343636657        7.9988235579
  H        24.4777753619        3.0263140083        3.9072786297
  H        25.6189837728        4.8806767723        2.6769255819
  H        23.2478408665        7.7543662266        4.8260284094
  H        22.1253244728        5.8902379374        6.0586865189
  H        23.8293715529        5.7921407951        1.2359524186
  H        36.3803916110       32.1820209559        3.9609813276
  H        35.2613341569       30.3542959011        2.6810270760
  H        37.5220840069       27.4364650322        4.8896879053
  H        38.6216374084       29.2770167315        6.1776783399
  H        37.0389503446       29.4402487579        1.2706998480
  H        25.7323818494        8.6053569973        4.6412916693
  H        36.4580350671       32.2377972093       12.1142896178
  H        35.3493664410       30.4167060766       13.4084738004
  H        37.5311363131       27.4857825884       11.1372149162
  H        38.6147973684       29.3186430105        9.8310463716
  H        37.0567986399       29.4603630542       14.8221892518
  H        46.1096303895       26.5877132894       11.3856321905
  H        44.6682831526       35.1161402588        7.8139482462
  H        24.4579886158        3.0356358051       12.0747288747
  H        25.6134125655        4.8665310136       13.3116416978
  H        23.2266022509        7.7712904947       11.2234926084
  H        22.0827939626        5.9285157471        9.9859493763
  H        23.8327240398        5.7926771123       14.7877761311
  H        44.9537608736       34.3904455349        9.6952623391
  H        44.9015289093       34.2068758639        6.4905059957
  H        40.6662052441       33.2095021569       10.8533111873
  H        23.1511007083        1.9581157366        8.0041831629
  H        25.8217711146       19.6508517111        3.9062874579
  H        23.6529416825       19.6940870912        2.6736266614
  H        22.3532681490       16.2222982644        4.8545007460
  H        24.5286576907       16.1914372088        6.0817221797
  H        23.7260742446       17.6621877063        1.2441906833
  H        35.1393176718       15.4756881724        3.9588201118
  H        37.2597940880       15.4449948929        2.6461042647
  H        38.6960177477       18.8102985134        4.9086467610
  H        36.5690440484       18.8220457309        6.2243708197
  H        37.2234273046       17.4319506614        1.2427199646
  H        20.3619177577       17.9803632885        4.6694960230
  H        35.1594638853       15.4531631635       12.1446361210
  H        37.3072078246       15.4086101928       13.4137065538
  H        38.7112477286       18.7805798549       11.1410940518
  H        36.5603288146       18.8026003198        9.8640215741
  H        37.2332627851       17.4226850318       14.7930762391
  H        35.1513948246       26.6795634118       11.3918217673
  H        28.4984906128       21.0797850708        7.8938128566
  H        25.7606198300       19.6238146711       12.1709728865
  H        23.5768633486       19.6797726732       13.3842114172
  H        22.2937415953       16.1908709851       11.2210157995
  H        24.4773847011       16.1580707173       10.0010752157
  H        23.7032467712       17.6488283143       14.7959441430
  H        29.0076230193       21.7228093429        9.7406792429
  H        29.1898219532       21.7249907602        6.5767258902
  H        32.0788142487       18.5837587630       10.9913102027
  H        27.4035955278       19.0711427520        8.0811018739
  H        14.8481967756       19.6471141452       12.1422118329
  H        17.0103550288       19.6935580659       13.3855049297
  H        18.3042932188       16.1898225239       11.2531068313
  H        16.1380974263       16.1589097764       10.0093632669
  H        16.9224994495       17.6980329200       14.8498824146
  H        46.0824377440       15.4438186144       12.0681691456
  H        43.9551582207       15.3915806024       13.3713831032
  H        42.5483145589       18.8225114917       11.1910216707
  H        44.6760080513       18.8496773425        9.8778173656
  H        44.0172229625       17.3445945340       14.8231173386
  H        20.2905061479       17.9257604985       11.4218258361
  H        46.0380759505       15.3969370128        4.0218708384
  H        43.9080791325       15.3450702389        2.7250215519
  H        42.5236043404       18.8041580674        4.8739815365
  H        44.6600389739       18.8422279597        6.1715586727
  H        44.0060098470       17.3300568352        1.2727210077
  H        46.1996046417       26.6827502704        4.6234033673
  H        52.7412878388       21.0626796754        8.1947046973
  H        14.8807347908       19.6752713525        3.8969997209
  H        17.0815843157       19.7496882160        2.7181389062
  H        18.3388926869       16.2340083995        4.8521513239
  H        16.1400681260       16.1833164777        6.0406417889
  H        16.9445201232       17.7138071688        1.2971644816
  H        52.3228395503       21.6733563802        6.2940975446
  H        52.0135061825       21.7022739823        9.4956752670
  H        49.0679778663       18.6077782531        5.2038101205
  H        13.2477433166       19.0160404943        7.9773921753
  H        29.9877259085       12.5242442446       12.2815056117
  H        28.9491285232       10.5692151352       13.4316442717
  H        25.3292795316       11.1709982572       11.1884232919
  H        26.3862521877       13.1128055061       10.0288035478
  H        27.2139465464       11.6698824302       14.7983739697
  H        31.0085983410       22.7609115426       12.0299061692
  H        32.0229469781       24.6371160016       13.3258872920
  H        35.6959019891       24.1441514172       11.1420788570
  H        34.6604050718       22.2755798475        9.8394521062
  H        33.7021063048       23.5653955460       14.7513794915
  H        25.7956571926        8.5877090133       11.3941685736
  H        30.9398328012       22.7224815846        3.9400117804
  H        31.9734058105       24.5749842340        2.6289270177
  H        35.6203693852       24.1072205606        4.8615431562
  H        34.5706069199       22.2533419013        6.1710401171
  H        33.6779450733       23.5494495765        1.2034416267
  H        40.5950511808       17.0974839281        4.6525010690
  H        32.5047094418       14.1569651159        8.2598507168
  H        29.9034362533       12.5257005657        3.9194700320
  H        28.8777415674       10.6226776337        2.6696412247
  H        25.2143812100       11.1733760397        4.8551602729
  H        26.2626814240       13.0601142072        6.1151472388
  H        27.1819971920       11.6851179772        1.2462472124
  H        33.3074616329       14.2303046865        6.4648438489
  H        33.4046916035       14.3856355142        9.6115069422
  H        32.0964832258       18.4925899901        5.1565215630
  H        30.2110231654       14.1933783878        8.0839405969
  H        16.1182531904        2.9634137455       12.1293383948
  H        14.9531330341        4.8204305460       13.3221513291
  H        17.3663991535        7.6860549491       11.2101930963
  H        18.5152122452        5.8186508801       10.0104221595
  H        16.7535250203        5.7394903642       14.7714925878
  H        44.8279944613       32.1404023677       11.9773314936
  H        45.9373166162       30.3415624866       13.3067273210
  H        43.6831656460       27.3782381984       11.1520754731
  H        42.6003947152       29.1900928201        9.8094635198
  H        44.2305741435       29.4368376930       14.7689672050
  H        14.8514158141        8.5464933681       11.3633433350
  H        44.8997723301       32.2341600636        3.9315866002
  H        46.0246737367       30.4131393061        2.6521148581
  H        43.7642451963       27.4841415629        4.8459331814
  H        42.6463917187       29.3178523022        6.1249817498
  H        44.2686897075       29.4705866536        1.2182419472
  H        35.0828180489       26.6133559580        4.6305067196
  H        36.6051957545       35.1341112098        8.1806195295
  H        16.1438894515        3.0131150499        3.9044202908
  H        14.9743822083        4.8564355623        2.6886273349
  H        17.3967367265        7.7473712336        4.7550143819
  H        18.5437520037        5.8935549665        5.9827013920
  H        16.7647995489        5.7554743806        1.2192171771
  H        36.2788359069       34.4825610836        6.2729891901
  H        36.3808503674       34.2092792359        9.4996851624
  H        40.5808061226       33.2033396496        5.1534187486
  H        17.4715559000        1.9478504586        7.9743178941
  H        29.0761619133       19.4087962776       12.5465119317
  H        29.7094310907       19.6491975206        3.5786525804
  H        31.7295865136       15.7981084827        3.5271358936
  H        31.0373935488       15.6563942217       12.5973029197
  H        28.1087442942       17.8873112440       14.8193433991
  H        29.3944629543       15.6835410350       14.9059131271
  H        31.4336047333       19.8563235168        1.5140976923
  H        32.9518708768       17.5901984145        1.4677183263
  H        28.3591076580       17.7895946516        2.1223815734
  H        32.2267566819       18.2776667486       14.7024466310
  H        18.8530495099        0.8689412922       12.3351686856
  H        40.5279353238       35.2287701537        3.9518690075
  H        42.3246441884       34.4190749809        3.5902474548
  H        22.0876503960        0.6920815774       12.3518837555
  H        11.5969465449       18.7127397081       12.3824334543
  H        52.2652923173       18.4312861891        3.6775485071
  H        49.2554215430       16.4767112466        3.5843387946
  H        10.1501662555       15.7982288086       12.2927109938
  H        50.8504556898       17.6925097288        3.9541711008
  H        10.0460918299       17.3946352514       12.0519074850
  H        20.2141549236        0.0021951782       12.0421081030
  H        39.1836778584       36.1245147762        3.6864989291
 Ni        31.0323338042       17.9094760946        2.9159111490
 Ni        31.2424521694       16.5645600329        0.1655627280
 Ni        29.7622806674       18.8465336413        0.1657619266
 Ni        30.0119782152       17.5183126659       13.4050598804
  O        10.6499229399       14.3650885615        5.4858574422
  O        12.6131776669       14.6575158088        6.5839040850
  O        49.1477811147       16.8458296445        7.9897365923
  O        50.3502949373       20.9357671247        5.6480156943
  O        48.3485601098       20.5932995039        6.6659149064
  O        11.0516984522       17.0537531632        6.5007558831
  O        50.3209995498       20.8816635956       10.4068761932
  O        48.3467326019       20.5867512464        9.3271184155
  O        49.5436546057       18.2483638610       10.0682142960
  O        12.3591159059       18.6245982325        7.9997097662
  O        48.6931949172       14.1486717990        6.7512478713
  O         8.2098387775       14.2105345633        9.3226225528
  O        10.7353363758       14.5067465418       10.6643137191
  O        12.5718205623       14.5828305062        9.3285064395
  O        22.8446368524        2.0433739518        5.4867703348
  O        21.6067017695        3.5930821837        6.5887244493
  O        42.0583297340       34.1377659357        7.9791776521
  O        37.9817777459       33.1371544957        5.5722873782
  O        39.2184018161       31.5761262744        6.6668720996
  O        20.3086530279        1.0403581872        6.5025503395
  O        38.0245630751       33.1855571792       10.4152636409
  O        39.2194046978       31.5839369038        9.3261753341
  O        40.6523375400       33.7695991129       10.0602912725
  O        18.2559838590        1.3763042397        7.9968799263
  O        44.6221377970       35.1006215945        6.7587885747
  O        24.2053703083        0.0000567651        9.3207990644
  O        22.7539120776        2.0587752955       10.5850261297
  O        21.6268691233        3.5987102896        9.3472483613
  O        27.4981250713       18.7536476325        5.4980030331
  O        26.7651949879       16.9349001109        6.6544529924
  O        30.6599137619       19.4040417483        8.0675921640
  O        33.5832147170       16.2751311561        5.6671215733
  O        34.2717705165       18.1661828013        6.7381142991
  O        29.5720142558       17.0627763878        6.5770170956
  O        33.5358576552       16.3314384069       10.4995091431
  O        34.2665530347       18.1789842116        9.4048861767
  O        31.6469053998       18.3182668174       10.1628468322
  O        30.3189629825       15.1586420182        8.0918548053
  O        28.5528970725       21.0345477900        6.8392135645
  O        28.5145757717       20.9539314550        9.4071576499
  O        27.4574598864       18.6801435227       10.6580449195
  O        26.6949416044       16.9287556787        9.4131797238
  O        13.1487329446       18.6929286291       10.5874411740
  O        13.9195304914       16.9163282949        9.4052045391
  O        50.5961951118       19.3501504091        8.0204223541
  O        47.6815539826       16.3273756489       10.4176014016
  O        46.9511559315       18.1759983182        9.3247288938
  O        11.0697736199       17.0154667327        9.4895908260
  O        47.6748943843       16.3360222738        5.6523138841
  O        46.9265544575       18.2359418370        6.6640930424
  O        49.5686639298       18.3176463503        5.9822804154
  O        10.3186388711       15.1002065543        7.9971244142
  O        52.6707743969       21.0278742188        9.2418156730
  O        12.1468313944       20.8911663951        6.6732708526
  O        13.1084171658       18.6135929410        5.3255897911
  O        13.9573881208       16.9871410293        6.6653093155
  O        29.9864784082       14.5597510020       10.7485667911
  O        28.0903844999       14.6564098234        9.4947226923
  O        32.0741367838       16.8581529187        8.0872093165
  O        30.9650572596       20.9489876988       10.4111069820
  O        32.9472540951       20.5964664890        9.3384022570
  O        29.5633046671       17.0839365310        9.5764344791
  O        30.8717173417       20.9398956746        5.6580903203
  O        32.8763216147       20.5860126919        6.6666600882
  O        31.6833632659       18.2522397063        6.0057715761
  O        28.2914027486       18.6775770417        8.0772603811
  O        32.4865877135       14.2180864712        9.3333278430
  O        32.4039883273       14.2177398318        6.8231545052
  O        29.9210273717       14.4389634218        5.4922222430
  O        28.0398690029       14.5892326549        6.7525106942
  O        17.8893500685        1.9667262455       10.6627360949
  O        18.9565052606        3.5271888885        9.4079490025
  O        39.1686456494       34.1388773381        7.9972243104
  O        43.2801930522       33.0590465459       10.3317528888
  O        42.0345973155       31.5064838153        9.2416387056
  O        20.3180089058        1.0371734451        9.4799582994
  O        43.2760668645       33.1826629090        5.5749183246
  O        42.0052938454       31.5841287115        6.5829773037
  O        40.5790347639       33.7751970801        5.9361313190
  O        22.3676269708        1.3853068419        7.9982235193
  O        36.6728389260       35.0998386104        9.2332744438
  O        16.4457537648        0.0643139366        6.6682793465
  O        17.9365891159        2.0434461820        5.3264849380
  O        18.9194330436        3.5931070357        6.6661129120
  O        29.8259190725       18.8222690679        4.0845141549
  O        29.7792088243       18.9057281236       12.0913411189
  O        31.2243286511       16.4176496782        4.0852880865
  O        31.2226849513       16.5458144786       12.2346052577
  O        32.2239232280       16.9980143185        1.7309709751
  O        28.4589178341       17.5197374760        1.1843660235
  O        30.2538160128       16.0511490714       14.6408853309
  O        32.6191196318       17.3785104725       14.7563129920
  O        30.6330671786       19.3567738207        1.7459565339
  O        28.8483941441       18.4708623543       14.5633144000
  O        39.4567013252       35.2438411494        4.0020544012
  O        19.1409727290        0.0044192995       11.9905421244
  O        41.9692843030       35.1722641212        4.0871992752
  O        21.6912934001       -0.0692650336       11.8960241340
  O        51.3653420158       18.6143356245        4.0054430312
  O        10.7511101834       18.7471312255       11.9049317034
  O        50.0797789066       16.4127928934        4.0917437806
  O         9.5243318439       16.4831216344       11.9911794051
 Zr         9.2972887045       16.0527802949        6.1824067317
 Zr        49.8366318123       16.0068208358        9.7464436562
 Zr        22.0732312340        0.0305140292        6.1890805709
 Zr        42.4611645603       35.1543145053        9.8014992358
 Zr        29.6098788322       19.0792524976        6.2809513880
 Zr        29.5676520265       19.1773247088        9.8867750825
 Zr        11.0385062728       19.0518432075        9.8278109706
 Zr        11.0444762435       19.1546762256        6.2509678324
 Zr        31.3338492138       16.1304670205        9.9009909568
 Zr        31.3799609627       16.0110097594        6.2705596006
 Zr        18.6013964547       -0.0008872296        9.7630928460
 Zr        18.5068236967       -0.0069639261        6.2139249670
 Zr        12.3028861496       16.3236172544        7.9903194635
 Zr        48.6168243580       18.8330273965        8.0102492685
 Zr        20.3168605966        2.4750964557        7.9915722253
 Zr        40.6440243050       32.6875888626        7.9783022489
 Zr        28.3384038453       16.3434431705        8.0759868560
 Zr        32.6170212816       18.8346604643        8.0502594666
  H        32.3786425285       16.9919034786       13.8720957997
  H        29.1559144724       16.7998111622        1.2161091812
  H        30.6548028500       19.6973465470       -0.6013373156
  H        30.3614760368       15.7945459787        1.0410745772
