     562
 i =      146, E =     -4525.7479303412
  C        11.8585883479       14.0534071409        5.7415578341
  C        12.4559173098       12.8903671278        5.0233557433
  C        11.7042706577       12.1717830297        4.0813846117
  C        12.2805275838       11.1095229018        3.3890317235
  C        13.6209573402       10.7392881540        3.6169853100
  C        14.3540152706       11.4424719775        4.5908389038
  C        13.7812530123       12.5074786051        5.2824017249
  C        14.2603979467        9.6486108578        2.8435381063
  C        14.2554374953        9.6564336047        1.4218280212
  C        13.7422172409       10.7585043248        0.6678820834
  C        49.1265306912       21.2333990750        5.8797770566
  C        48.5496868898       22.4012338733        5.1527533541
  C        49.2996818034       23.0684871515        4.1716646492
  C        48.7327390358       24.1075531844        3.4384029466
  C        47.4022138832       24.5092396438        3.6670658626
  C        46.6712855793       23.8604438179        4.6806557744
  C        47.2337463106       22.8155823351        5.4100574222
  C        46.7720093883       25.5869000495        2.8697420586
  C        46.7610713975       25.5572722060        1.4479833544
  C        47.2609925591       24.4421698720        0.7044946496
  C        14.8592893324        8.5700633028        0.7085294460
  C        14.8913356201        8.5967101636        3.5201404296
  C        49.1128678997       21.2034584363       10.1452928830
  C        48.5274966006       22.3647835833       10.8723583513
  C        49.2666517539       23.0252893193       11.8654825716
  C        48.6903310724       24.0598092273       12.5969687802
  C        47.3600065016       24.4567993510       12.3585651532
  C        46.6397109156       23.8121312371       11.3347959162
  C        47.2132409592       22.7762564350       10.6029590676
  C        46.7215711795       25.5317295108       13.1496204120
  C        46.7333400064       25.5280706352       14.5713241294
  C        47.2487249599       24.4288489550       15.3277316758
  C        40.6157136206       17.0649934718       15.3190930525
  C        40.6337144579       17.1163706330       12.5088202200
  C        11.8827126534       14.0862958596       10.2854167703
  C        12.4716135582       12.9102011136       10.9893779892
  C        11.7140881886       12.1775749305       11.9159516921
  C        12.2803592349       11.0949825639       12.5843876564
  C        13.6189231988       10.7205290388       12.3521937344
  C        14.3568276867       11.4353979909       11.3907968888
  C        13.7917033716       12.5166965199       10.7180764113
  C        14.2523670711        9.6237736887       13.1226866059
  C        14.2511815598        9.6438572024       14.5445313224
  C        13.7414741716       10.7528699043       15.2916239735
  C        22.5031328681        3.2422198206        5.7468652465
  C        23.1999340415        4.3449632547        5.0296079978
  C        24.1976878308        4.0623275568        4.0854378171
  C        24.8145282152        5.0997416147        3.3921458087
  C        24.4471143926        6.4398619541        3.6234356995
  C        23.4728339511        6.7142178847        4.6000949582
  C        22.8524190876        5.6787898412        5.2927656472
  C        25.0555204387        7.5447181683        2.8510724591
  C        25.0559709585        7.5328543136        1.4304134411
  C        24.3678478456        6.5305211643        0.6762625242
  C        38.3000421303       31.9273147993        5.8487413971
  C        37.5632726862       30.8393937162        5.1403514302
  C        36.6001253388       31.1484070392        4.1671388065
  C        35.9719825762       30.1326627838        3.4511493338
  C        36.2906911015       28.7803643346        3.6849110665
  C        37.2248888872       28.4787772815        4.6942675377
  C        37.8570847772       29.4935460153        5.4096269647
  C        35.6767375696       27.6929948781        2.8869679460
  C        35.7076224293       27.7078711272        1.4647682831
  C        36.4174318147       28.7073901485        0.7274461703
  C        25.6922751140        8.6010190386        0.7199675618
  C        25.6341627264        8.6233850506        3.5301543254
  C        38.3268229320       31.9605312634       10.1570362819
  C        37.6009822785       30.8879510196       10.8986868390
  C        36.6687564121       31.1989285925       11.9008465483
  C        36.0516000086       30.1827996082       12.6284832134
  C        36.3511638288       28.8281870458       12.3791095940
  C        37.2619261062       28.5272667691       11.3473985672
  C        37.8810762029       29.5400532677       10.6206829986
  C        35.7349990098       27.7312975475       13.1628120451
  C        35.7373522737       27.7273619707       14.5856281103
  C        36.4307197761       28.7173317289       15.3505608565
  C        46.1353423644       26.6207174000       15.2814518549
  C        46.0876390123       26.5801016925       12.4735660836
  C        22.4668446456        3.2536115437       10.2500599013
  C        23.1772657784        4.3591772574       10.9582931295
  C        24.1893518751        4.0672807777       11.8863513208
  C        24.8301340378        5.0944679394       12.5738414888
  C        24.4774400685        6.4408299249       12.3552195347
  C        23.4911648818        6.7262040648       11.3927871441
  C        22.8462719495        5.6993165360       10.7048405488
  C        25.1090873338        7.5339757088       13.1334734564
  C        25.0838991829        7.5265266218       14.5551209601
  C        24.3782790586        6.5295163658       15.3000167002
  C        26.5580364368       17.8265652380        5.7878301031
  C        25.2574450993       17.8950720906        5.0637701711
  C        25.0080287678       18.9104576810        4.1274041535
  C        23.8005892223       18.9443473724        3.4343037265
  C        22.8108937168       17.9665599766        3.6574545625
  C        23.0553943340       16.9750399565        4.6259962513
  C        24.2638858374       16.9360265718        5.3175508806
  C        21.5458891858       17.9635952356        2.8847573487
  C        21.5550877697       17.9594024211        1.4628424702
  C        22.7657863901       17.8512546925        0.7081275191
  C        34.4093685890       17.2067616665        5.9054127150
  C        35.7061172216       17.1293934368        5.1711381746
  C        35.8996314588       16.1582272624        4.1761076498
  C        37.0843704574       16.1258636293        3.4449476871
  C        38.1071072965       17.0646977383        3.6850048605
  C        37.9161502921       18.0141160003        4.7076764158
  C        36.7306133016       18.0507331185        5.4381178058
  C        39.3617282328       17.0656040444        2.8966324080
  C        39.3575189987       17.0743706013        1.4738574187
  C        38.1502047547       17.1877746885        0.7149101496
  C        20.3114321875       17.9768820070        0.7501154401
  C        20.3199485512       17.9537901516        3.5625561258
  C        34.4473178702       17.2449398048       10.1771176027
  C        35.7463160984       17.1460517416       10.9041359266
  C        35.9683168761       16.1396295902       11.8568157065
  C        37.1555101558       16.1095707724       12.5847813421
  C        38.1534606528       17.0818707074       12.3776138711
  C        37.9397383572       18.0613383902       11.3893680554
  C        36.7505686035       18.0982436013       10.6666260365
  C        39.4022572438       17.0905817142       13.1736474342
  C        39.3783338337       17.0858806261       14.5952424360
  C        38.1600817249       17.1900649145       15.3379021413
  C        35.1004003862       26.6512560955       15.2893661123
  C        35.1454426925       26.6596439198       12.4796395265
  C        26.5645019404       17.8237395741       10.3293745322
  C        25.2530222855       17.8768006439       11.0343702326
  C        24.9697339634       18.9201166343       11.9286647022
  C        23.7514837042       18.9536118761       12.6006498840
  C        22.7883728436       17.9462472823       12.3972611228
  C        23.0649898058       16.9262376114       11.4695884047
  C        24.2845960737       16.8892247774       10.7974764935
  C        21.5225371045       17.9405197954       13.1657485152
  C        21.5422037914       17.9473165834       14.5864337525
  C        22.7596691364       17.8463986519       15.3316832021
  C        14.0452907308       17.8321972929       10.2839801328
  C        15.3515682604       17.8980456563       11.0014261621
  C        15.6097585580       18.9142170609       11.9342029375
  C        16.8200400852       18.9431279356       12.6231071018
  C        17.8032616452       17.9584713470       12.4003612830
  C        17.5508779107       16.9674655057       11.4335398871
  C        16.3401530206       16.9344013111       10.7456232675
  C        19.0691278992       17.9475507825       13.1712380756
  C        19.0611960606       17.9530589591       14.5929093300
  C        17.8503136260       17.8541073882       15.3480396203
  C        46.8024930983       17.2178974138       10.1594376808
  C        45.5109373344       17.1514098468       10.9050009968
  C        45.3060606565       16.1685087378       11.8860642315
  C        44.1234128049       16.1422470081       12.6210376974
  C        43.1134118377       17.0990178853       12.3987627776
  C        43.3159393206       18.0622429383       11.3914602934
  C        44.4993336178       18.0920673234       10.6568823363
  C        41.8585773842       17.0997439481       13.1873815078
  C        41.8628060174       17.0885469463       14.6100704045
  C        43.0707725851       17.1845815334       15.3703148336
  C        20.3045583396       17.9698935478       15.3059877347
  C        20.2948601961       17.9209475701       12.4933654527
  C        46.7819012714       17.2298652991        5.8886269492
  C        45.4769449000       17.1168980373        5.1741642325
  C        45.2607401616       16.1121631116        4.2183747282
  C        44.0714210059       16.0745036803        3.4940095430
  C        43.0663633645       17.0381977953        3.7073272795
  C        43.2731718246       18.0130811050        4.7015362889
  C        44.4639068254       18.0571431114        5.4210759474
  C        41.8181746804       17.0489805734        2.9102571641
  C        41.8422129562       17.0611779588        1.4886693813
  C        43.0608692596       17.1691712208        0.7471773198
  C        46.1531087861       26.6371604135        0.7262079979
  C        46.1620600668       26.6560359202        3.5358450337
  C        14.0399169989       17.8298942147        5.7069702233
  C        15.3539388010       17.9037350962        5.0075722929
  C        15.6204035091       18.9290446324        4.0882072884
  C        16.8441400567       18.9719639267        3.4254801885
  C        17.8258262705       17.9885999065        3.6580788183
  C        17.5648982777       16.9890619620        4.6125022013
  C        16.3433210409       16.9459740693        5.2793018022
  C        19.0917947103       17.9762834265        2.8904179396
  C        19.0733031494       17.9672844610        1.4694589989
  C        17.8563196549       17.8604916003        0.7242575738
  C        28.8119150698       14.0837702025       10.3627203714
  C        28.2162102340       12.9051325719       11.0509936088
  C        28.9478014782       12.1792582815       12.0021889048
  C        28.3596346711       11.1011424022       12.6588928487
  C        27.0282440586       10.7270794157       12.3869013552
  C        26.3197629134       11.4337214018       11.3985717529
  C        26.9045140781       12.5118682059       10.7410275588
  C        26.3635371884        9.6440813856       13.1460234763
  C        26.3356353283        9.6699284184       14.5665381230
  C        26.8335745652       10.7812841124       15.3181185171
  C        32.1792051747       21.2387972712       10.1086160218
  C        32.7620367805       22.4036088873       10.8388945567
  C        32.0074699490       23.0721287527       11.8158400311
  C        32.5702454514       24.1111499454       12.5522362006
  C        33.9028738695       24.5124295082       12.3335395517
  C        34.6396027524       23.8609477442       11.3255210624
  C        34.0804473479       22.8161522487       10.5917728263
  C        34.5249851092       25.5911570568       13.1377830685
  C        34.5094752232       25.5668475750       14.5602903225
  C        33.9975503660       24.4540575895       15.2994866133
  C        25.7126443646        8.5935996119       15.2763878042
  C        25.7331916158        8.5946240862       12.4649917901
  C        32.0691924842       21.1924077068        5.8396614917
  C        32.6450651220       22.3627555385        5.1123205011
  C        31.9145130310       23.0143468690        4.1062384430
  C        32.4876327351       24.0592260528        3.3842841628
  C        33.8069891919       24.4808011990        3.6444390722
  C        34.5175542315       23.8445345558        4.6808556289
  C        33.9484444950       22.7977957556        5.4014959464
  C        34.4489883425       25.5639237204        2.8622832642
  C        34.4706313000       25.5531685190        1.4394349349
  C        33.9781784371       24.4478527310        0.6763656474
  C        40.6046693817       17.0548624697        0.7646562964
  C        40.5866704284       17.0686671908        3.5750203889
  C        28.6752213770       14.0303878192        5.8249172409
  C        28.0615075932       12.8903320801        5.0867720164
  C        28.8147092925       12.1715559614        4.1454570186
  C        28.2355023390       11.1250666332        3.4346988267
  C        26.8889991093       10.7691030372        3.6445813145
  C        26.1514929361       11.4723355061        4.6150611558
  C        26.7285078681       12.5226863487        5.3259109550
  C        26.2587676052        9.6820611342        2.8610672913
  C        26.2831471605        9.6899321543        1.4402147037
  C        26.8066076958       10.7918757117        0.6938009205
  C        18.1352527373        3.1808649002       10.3171872332
  C        17.4056339364        4.2779752991       11.0157628594
  C        16.3897078649        3.9993635199       11.9429664806
  C        15.7416847084        5.0391732389       12.6064495513
  C        16.0935050242        6.3829426062       12.3669883141
  C        17.0831506707        6.6527368413       11.4035871021
  C        17.7325343221        5.6155512652       10.7385595862
  C        15.4689337993        7.4905135397       13.1300327339
  C        15.4842852779        7.4899207922       14.5517436722
  C        16.1860300613        6.4964160489       15.3048718907
  C        42.9457521076       31.8594924883       10.0728012728
  C        43.6461669311       30.7717564619       10.8167071199
  C        44.5917452441       31.0931063783       11.8027121235
  C        45.1974468994       30.0875708511       12.5503996181
  C        44.8708656133       28.7345349694       12.3356485051
  C        43.9450011874       28.4201592438       11.3224896306
  C        43.3361888188       29.4252980217       10.5744342538
  C        45.4884694257       27.6552421642       13.1388303277
  C        45.4926708171       27.6808645233       14.5605252405
  C        44.8056386626       28.6889617940       15.3071314330
  C        14.8552983360        8.5624133002       15.2640927643
  C        14.8735435738        8.5621891279       12.4514300900
  C        42.9464056889       31.9616076092        5.8090127439
  C        43.6915414544       30.8854132766        5.0954463376
  C        44.6563465872       31.1913297784        4.1233722422
  C        45.2777980790       30.1717353655        3.4055836537
  C        44.9537852857       28.8214498489        3.6430207692
  C        44.0200168732       28.5237819200        4.6535235633
  C        43.3918268905       29.5405485841        5.3657694281
  C        45.5628191497       27.7240394328        2.8577725138
  C        45.5331600326       27.7173421681        1.4364773587
  C        44.8269137956       28.7076223446        0.6835234990
  C        35.0829505027       26.6429494662        0.7353713133
  C        35.0638821147       26.6208324443        3.5460941855
  C        18.1484337305        3.2468049726        5.7065697966
  C        17.4298830751        4.3436162301        4.9970540178
  C        16.4145416497        4.0523067304        4.0736666451
  C        15.7661222938        5.0829018994        3.3983072277
  C        16.1208237988        6.4281374611        3.6209198692
  C        17.1124834939        6.7115851886        4.5778597716
  C        17.7602073461        5.6826896759        5.2576136251
  C        15.4901334973        7.5237788702        2.8485289095
  C        15.4957480097        7.5070814395        1.4273906841
  C        16.1924723826        6.5053639598        0.6806813601
  H        10.6722628531       12.4662016760        3.9041477484
  H        11.6942405870       10.5512763542        2.6623128534
  H        15.3908966834       11.1674939113        4.7728550923
  H        14.3506546314       13.0703004500        6.0181971276
  H        13.3753537026       11.6307213812        1.2011375447
  H        50.3223815329       22.7484394499        3.9869121189
  H        49.3191905782       24.6227868336        2.6807799224
  H        45.6418196166       24.1612838963        4.8638607208
  H        46.6627256358       22.2904126452        6.1721960077
  H        47.6294792499       23.5757645117        1.2461688321
  H        14.8718637918        8.5879976424        4.6084519435
  H        50.2866151340       22.7022762199       12.0605369098
  H        49.2686572083       24.5751352223       13.3606069995
  H        45.6104128586       24.1096130626       11.1455340450
  H        46.6524821414       22.2543132466        9.8312003546
  H        47.6074644320       23.5516954124       14.7968665556
  H        40.6398413010       17.0959934459       11.4206435168
  H        48.6870445160       14.0950241678        7.7999899027
  H        10.6808266519       12.4671873074       12.0936727714
  H        11.6885330098       10.5250051252       13.2973870047
  H        15.3920283324       11.1568944727       11.2044930624
  H        14.3640629774       13.0855315161        9.9891450005
  H        13.3746557499       11.6214991754       14.7530110712
  H        47.9300915141       14.2181152962        9.7108675619
  H        47.7799268668       14.3737071767        6.4952957779
  H        49.0825716646       18.5521852142       10.8671512813
  H        10.4158364746       14.1343394774        7.9987646793
  H        24.4687203415        3.0240201814        3.9079835835
  H        25.5917385987        4.8830576821        2.6625325381
  H        23.1821522296        7.7467943628        4.7817869892
  H        22.0800284971        5.8785174168        6.0313618669
  H        23.7990256646        5.7743439848        1.2094664350
  H        36.3678630973       32.1930046311        3.9736929663
  H        35.2252639866       30.3785226724        2.6992664427
  H        37.4802297986       27.4381275011        4.8834347721
  H        38.6028367277       29.2658327384        6.1677253168
  H        36.9835242155       29.4563215588        1.2736320197
  H        25.6469419942        8.6106767715        4.6184476396
  H        36.4477828370       32.2437632477       12.1071466540
  H        35.3233315353       30.4318802988       13.3971557612
  H        37.5069395034       27.4863566298       11.1466778996
  H        38.6056603155       29.3103161196        9.8431740293
  H        37.0080452897       29.4735148890       14.8264316250
  H        46.1090312415       26.5875210366       11.3855302122
  H        44.6682670174       35.1162195406        7.8142126571
  H        24.4621036721        3.0274108013       12.0511184382
  H        25.6166307116        4.8636214969       13.2891723434
  H        23.2097465049        7.7623315227       11.2162108156
  H        22.0675857859        5.9145344552        9.9767950480
  H        23.8168729902        5.7730031458       14.7596251785
  H        44.9537165284       34.3898629270        9.6946819021
  H        44.9020990881       34.2069225590        6.4907715125
  H        40.6652367934       33.2083143356       10.8527998131
  H        23.1499477823        1.9578130299        8.0021704362
  H        25.7696179662       19.6683796982        3.9588333796
  H        23.6083000795       19.7361427740        2.7135253863
  H        22.2997538431       16.2127410656        4.8042517021
  H        24.4678168678       16.1577734175        6.0492216913
  H        23.7057382796       17.7379027333        1.2405423659
  H        35.1031922544       15.4437978947        3.9807819687
  H        37.2310016509       15.3647865457        2.6816934850
  H        38.6962525643       18.7480848326        4.8989341577
  H        36.5690003556       18.8003754463        6.2092609375
  H        37.2089017472       17.3058600976        1.2441122387
  H        20.3221682992       17.9796811191        4.6507794872
  H        35.1976254841       15.3904898920       12.0236811675
  H        37.3230644118       15.3268276803       13.3214416011
  H        38.7031802240       18.8184745487       11.2227033798
  H        36.5662126657       18.8725565234        9.9257676644
  H        37.2262049424       17.3082970712       14.7958896639
  H        35.1240307567       26.6833286643       11.3917037099
  H        28.5037848242       21.0792259524        7.8760376128
  H        25.7138225114       19.6994452229       12.0762493492
  H        23.5298912727       19.7641430110       13.2916256521
  H        22.3277383287       16.1421587934       11.3098999767
  H        24.5162276690       16.0912062066       10.0961023066
  H        23.6947479585       17.7304858187       14.7915056491
  H        28.9972848608       21.7167268577        9.7447378885
  H        29.1992433440       21.6987122397        6.5472187294
  H        32.1276598960       18.6218651873       10.8675627075
  H        27.3716310438       19.0319791053        8.0714793421
  H        14.8511609362       19.6749277775       12.1040512496
  H        17.0188475986       19.7354366794       13.3415911969
  H        18.3016523255       16.2006104935       11.2541686904
  H        16.1306746778       16.1567846727       10.0149902756
  H        16.9104363930       17.7385606692       14.8162356894
  H        46.0908731450       15.4375412826       12.0660101362
  H        43.9673237249       15.3711316755       13.3722803175
  H        42.5459993197       18.8103231829       11.2140627172
  H        44.6694197474       18.8504045009        9.8960907850
  H        44.0124353740       17.3039814008       14.8421372447
  H        20.2932893644       17.9375277774       11.4049713574
  H        46.0407723651       15.3745252074        4.0440635338
  H        43.9087619681       15.2941716382        2.7536770032
  H        42.5034721165       18.7625150311        4.8740424288
  H        44.6425297447       18.8292857303        6.1654889814
  H        43.9951446769       17.2755799366        1.2908711713
  H        46.1988369528       26.6826043391        4.6232915470
  H        52.7411261840       21.0626610035        8.1946019075
  H        14.8591524633       19.6856490674        3.9117793543
  H        17.0535273986       19.7701308470        2.7165763345
  H        18.3160718516       16.2236180567        4.7959598755
  H        16.1242923309       16.1639242589        6.0022348157
  H        16.9209238496       17.7498864291        1.2646065643
  H        52.3222054692       21.6736299614        6.2948515512
  H        52.0134764306       21.7025326095        9.4954985026
  H        49.0666607599       18.6075342353        5.2043988507
  H        13.2469965462       19.0166715031        7.9761704632
  H        29.9714628046       12.4796176499       12.2150573748
  H        28.9264474564       10.5370083703       13.3963697115
  H        25.2910395467       11.1531465818       11.1823638546
  H        26.3550928314       13.0796926970        9.9943404911
  H        27.2105090737       11.6478437726       14.7831230388
  H        30.9835842633       22.7518618262       11.9939982167
  H        31.9783394899       24.6272333294       13.3050041279
  H        35.6710874821       24.1592490910       11.1493536838
  H        34.6570865900       22.2903057439        9.8342106169
  H        33.6453516728       23.5827752943       14.7547194322
  H        25.7726956375        8.5774074676       11.3772761106
  H        30.9021447420       22.6785963621        3.8931282258
  H        31.9128170813       24.5636729156        2.6106944595
  H        35.5385025870       24.1571491959        4.8901272269
  H        34.5058344645       22.2858875427        6.1823472184
  H        33.6114662241       23.5712943620        1.2028980787
  H        40.5804673790       17.0351560230        4.6628652236
  H        32.5175142079       14.1450262334        8.2335769014
  H        29.8562804610       12.4426995201        3.9906281534
  H        28.8243828205       10.5641896614        2.7122381757
  H        25.1095966680       11.2066782794        4.7816517005
  H        26.1577776512       13.0841966204        6.0618336057
  H        27.1618511349       11.6665446208        1.2310449897
  H        33.2953462058       14.2295938442        6.4339434299
  H        33.4073923946       14.3863377701        9.6002444817
  H        32.0516032258       18.4992125156        5.0797110019
  H        30.2046003450       14.1372458223        8.0690243940
  H        16.1177744141        2.9627914677       12.1291755368
  H        14.9520868286        4.8196096243       13.3218915181
  H        17.3656182296        7.6856581623       11.2107783337
  H        18.5148305630        5.8183729103       10.0110350009
  H        16.7525922903        5.7391114923       14.7713260803
  H        44.8280748534       32.1401946620       11.9768062281
  H        45.9373594452       30.3413392550       13.3062948368
  H        43.6822019843       27.3780987873       11.1524870631
  H        42.5995023754       29.1899929207        9.8098234740
  H        44.2303725497       29.4367841755       14.7688065772
  H        14.8497950175        8.5453643833       11.3632116250
  H        44.9000524851       32.2340072783        3.9321036181
  H        46.0248751689       30.4129540282        2.6525116253
  H        43.7628171045       27.4840707524        4.8448651986
  H        42.6451094533       29.3178032093        6.1240171844
  H        44.2684797215       29.4705579711        1.2181187562
  H        35.0204891280       26.6337887324        4.6335691526
  H        36.6052601402       35.1339087155        8.1806457271
  H        16.1434278275        3.0127154405        3.9040705495
  H        14.9736526479        4.8560172320        2.6883966305
  H        17.3961154114        7.7470480958        4.7545729463
  H        18.5431676716        5.8931665825        5.9822821803
  H        16.7640991431        5.7552532000        1.2190955245
  H        36.2789876204       34.4819266592        6.2733695450
  H        36.3809748880       34.2090649784        9.4996996031
  H        40.5796368311       33.2023223345        5.1539750289
  H        17.4706721529        1.9471620507        7.9739752415
  H        28.7363493994       18.8176851869       12.1854099640
  H        28.7068632752       18.6336938455        3.7767899032
  H        30.6023164853       15.3541350184        3.7348965586
  H        32.3916410320       16.4895129383       12.1672310869
  H        29.0271792644       18.7349123024       14.6747812447
  H        18.8539104567        0.8690528085       12.3351984379
  H        40.5283236707       35.2288837283        3.9521419394
  H        42.3238300470       34.4190529163        3.5901676322
  H        22.0873019512        0.6922668689       12.3516759261
  H        11.5967028345       18.7127350495       12.3824989302
  H        52.2650861635       18.4310178649        3.6779361858
  H        49.2551320975       16.4765172640        3.5840694096
  H        10.1504482868       15.7982140264       12.2924652567
  H        50.8500230913       17.6928063742        3.9540009271
  H        10.0460464201       17.3946793549       12.0519393401
  H        20.2152457528        0.0020623681       12.0418925116
  H        39.1836805225       36.1242308036        3.6863537751
 Ni        30.4365303070       17.4811422864        2.6653458835
 Ni        30.0566320327       17.2600903043        0.3330296146
 Ni        30.4291467207       17.4839819903       13.0782402969
  O        10.6498332107       14.3651845643        5.4858131231
  O        12.6130817004       14.6574809123        6.5838427437
  O        49.1475001822       16.8459797336        7.9897246899
  O        50.3500621451       20.9362897794        5.6482562860
  O        48.3484011281       20.5932271503        6.6659603530
  O        11.0508762628       17.0541104234        6.5006662079
  O        50.3206686907       20.8816926790       10.4068625117
  O        48.3465749173       20.5866218142        9.3270244598
  O        49.5431516471       18.2483457094       10.0683063994
  O        12.3587208920       18.6246133631        7.9996886404
  O        48.6931751935       14.1486568254        6.7512781845
  O         8.2098117583       14.2104914990        9.3225663549
  O        10.7352181462       14.5068023851       10.6643444915
  O        12.5717288524       14.5827332264        9.3285604629
  O        22.8440784751        2.0420023433        5.4877761179
  O        21.6037661374        3.5913923142        6.5903340092
  O        42.0579460537       34.1370415693        7.9791277244
  O        37.9813038017       33.1361676670        5.5721756542
  O        39.2171182105       31.5748648936        6.6653050335
  O        20.3083455682        1.0396702539        6.5018495368
  O        38.0241400276       33.1848609858       10.4155755600
  O        39.2180134974       31.5826892340        9.3275713574
  O        40.6521194674       33.7690033115       10.0601769739
  O        18.2555785877        1.3763132364        7.9967671234
  O        44.6222203849       35.1005501333        6.7588815969
  O        24.2055301559       -0.0001676710        9.3207311660
  O        22.7529735257        2.0559176530       10.5825123217
  O        21.6241679785        3.5951946261        9.3414827986
  O        27.4591985849       18.6924144459        5.4851191919
  O        26.6891087904       16.9185880363        6.6691715322
  O        30.6292908701       19.3476395084        7.9903299567
  O        33.5269397551       16.3230200695        5.6450670745
  O        34.2669999612       18.1731455597        6.7358599758
  O        29.5313939227       17.0050897540        6.5756186442
  O        33.5575417906       16.3432832990       10.4141652952
  O        34.2980164764       18.2390915443        9.3972405720
  O        31.6499079483       18.3201319100       10.0782874872
  O        30.2893289558       15.1044473533        8.0684064778
  O        28.5519737872       21.0252606236        6.8266647882
  O        28.5092198506       20.9520123482        9.3955182241
  O        27.4572851250       18.6782193080       10.6590776477
  O        26.6883644003       16.9301578454        9.4186148023
  O        13.1465455675       18.6938467134       10.5861898727
  O        13.9180520999       16.9160482694        9.4041972548
  O        50.5955345569       19.3502200257        8.0206882776
  O        47.6822254996       16.3273958075       10.4175931120
  O        46.9498419286       18.1756116206        9.3258452659
  O        11.0688739848       17.0159540908        9.4895526972
  O        47.6743846351       16.3358671488        5.6529039774
  O        46.9240277472       18.2357703227        6.6627037790
  O        49.5685011384       18.3177091395        5.9822628175
  O        10.3185914286       15.1002067313        7.9971140612
  O        52.6706946381       21.0279984561        9.2418117938
  O        12.1468012732       20.8914232440        6.6733341084
  O        13.1041853089       18.6144547214        5.3263776561
  O        13.9556909222       16.9868173138        6.6650953339
  O        29.9989021199       14.4396038077       10.6638614316
  O        28.0723340314       14.6559549496        9.4878229721
  O        32.0683248700       16.8527568643        8.0112510216
  O        30.9574345349       20.9494188067       10.3369051813
  O        32.9551757623       20.5909709992        9.3227802592
  O        29.5593924543       17.0656935429        9.5689918818
  O        30.8512997506       20.8719864990        5.5834356591
  O        32.8523127061       20.5843959175        6.6509716691
  O        31.6097627291       18.2362312390        5.9043093338
  O        28.2560350416       18.6308817114        8.0591551030
  O        32.4925472162       14.2105636212        9.3154307503
  O        32.4011995486       14.2163249563        6.8148541571
  O        29.8669837705       14.3664489806        5.4991265849
  O        27.9676238711       14.5801552846        6.7415302691
  O        17.8891715567        1.9665226433       10.6628784252
  O        18.9560978169        3.5271590656        9.4081191394
  O        39.1684637422       34.1385853531        7.9972152845
  O        43.2801943777       33.0588379142       10.3316881204
  O        42.0343324519       31.5064427874        9.2416001334
  O        20.3172397274        1.0361199066        9.4802574939
  O        43.2761334997       33.1825155719        5.5748962591
  O        42.0052162035       31.5841139366        6.5830047036
  O        40.5790705498       33.7750676139        5.9360616204
  O        22.3670833984        1.3842219012        7.9980084340
  O        36.6727761922       35.0997185116        9.2333042244
  O        16.4456220217        0.0641030995        6.6682360624
  O        17.9363530861        2.0431684456        5.3263906742
  O        18.9187652069        3.5931515668        6.6658459254
  O        29.6558619806       18.6876737895        4.0022048864
  O        29.6957177147       18.8992505667       12.0021926392
  O        31.0122770183       16.1967419616        4.0051130878
  O        31.4413811904       16.3409955789       11.9971021393
  O        29.4568573738       17.8611573359       14.6658476582
  O        39.4568297087       35.2436507098        4.0020113945
  O        19.1416663034        0.0045140998       11.9905255858
  O        41.9694367141       35.1726967358        4.0871271510
  O        21.6912784934       -0.0694005586       11.8961059042
  O        51.3650564287       18.6143758618        4.0052926175
  O        10.7509008284       18.7471637084       11.9049977854
  O        50.0793485427       16.4127470776        4.0917419922
  O         9.5244395353       16.4830695747       11.9912161718
 Zr         9.2966413308       16.0528892111        6.1821677018
 Zr        49.8361364111       16.0068823319        9.7466403385
 Zr        22.0733452407        0.0296752090        6.1893475437
 Zr        42.4609246895       35.1534277232        9.8011150051
 Zr        29.5609205250       19.0337316423        6.2070960195
 Zr        29.5770700058       19.1809919572        9.8048146605
 Zr        11.0372590819       19.0524023151        9.8277603341
 Zr        11.0431408410       19.1552526677        6.2512268758
 Zr        31.3279933019       16.0824721902        9.8138176724
 Zr        31.3327170475       15.9804173572        6.2245301541
 Zr        18.6011031827       -0.0016497935        9.7636836117
 Zr        18.5066751583       -0.0078780443        6.2135817717
 Zr        12.3010186897       16.3232006871        7.9904838705
 Zr        48.6156404465       18.8329011479        8.0100750174
 Zr        20.3147044298        2.4731918293        7.9909545247
 Zr        40.6429199432       32.6868899669        7.9781725229
 Zr        28.3145763356       16.3142080948        8.0845818211
 Zr        32.6019652045       18.8298548744        8.0086164989
  H        31.1735013148       16.8381605384        1.4223410132
