     562
 i =      321, E =     -4678.8581203289
  C        11.8576282881       14.0540256997        5.7415560444
  C        12.4553966563       12.8904277402        5.0230184379
  C        11.7037496434       12.1719146350        4.0811591844
  C        12.2798767665       11.1094826082        3.3887481550
  C        13.6201890105       10.7391469862        3.6168217212
  C        14.3533185174       11.4422234925        4.5906475436
  C        13.7805352756       12.5073321561        5.2821625887
  C        14.2597366419        9.6483722244        2.8434745899
  C        14.2553852819        9.6561402547        1.4217166696
  C        13.7419417680       10.7580963751        0.6677474069
  C        49.1258006428       21.2334784585        5.8801092998
  C        48.5485061302       22.4010669583        5.1522858386
  C        49.2996369387       23.0705949150        4.1737257225
  C        48.7326267372       24.1096076954        3.4403898835
  C        47.4010022292       24.5086273023        3.6667914665
  C        46.6684755110       23.8569440827        4.6772174511
  C        47.2310134469       22.8120193105        5.4065733651
  C        46.7711327204       25.5867159778        2.8696562791
  C        46.7604473309       25.5575023801        1.4478989360
  C        47.2605210322       24.4423589459        0.7045939472
  C        14.8593123821        8.5697350023        0.7084836844
  C        14.8905127647        8.5963864272        3.5200834149
  C        49.1122371871       21.2029936707       10.1450901187
  C        48.5264033589       22.3640411050       10.8731235869
  C        49.2666112494       23.0268968799       11.8637778311
  C        48.6901912356       24.0613957780       12.5953098159
  C        47.3587830189       24.4557789364       12.3590656009
  C        46.6369156159       23.8081811068       11.3384015496
  C        47.2105753723       22.7721751578       10.6067411584
  C        46.7206341446       25.5312238742       13.1498037103
  C        46.7327458913       25.5281800037       14.5714899519
  C        47.2482555444       24.4289779027       15.3278348418
  C        40.5946439898       17.0842213824       15.2990246143
  C        40.5951032746       17.2321316416       12.4705661559
  C        11.8817112501       14.0868150391       10.2851621815
  C        12.4709065475       12.9099740873       10.9893510292
  C        11.7131481903       12.1772483673       11.9154880183
  C        12.2792192738       11.0944855762       12.5840631277
  C        13.6177195596       10.7200077032       12.3520459136
  C        14.3558906408       11.4349519047       11.3909629586
  C        13.7908780951       12.5163745534       10.7182091588
  C        14.2512545864        9.6231849005       13.1225642972
  C        14.2508583976        9.6433626005       14.5444532154
  C        13.7410450870       10.7523625047       15.2914835652
  C        22.5039295104        3.2432710296        5.7432793175
  C        23.2016673238        4.3454434194        5.0203789639
  C        24.2041723871        4.0603374260        4.0815408014
  C        24.8261591994        5.0948237988        3.3869722001
  C        24.4606085441        6.4371555859        3.6101097229
  C        23.4789412906        6.7140377115        4.5793117248
  C        22.8535532265        5.6813046036        5.2732429084
  C        25.0797332996        7.5403864232        2.8399730952
  C        25.0945487500        7.5268802547        1.4184393496
  C        24.4124918896        6.5249581607        0.6582368003
  C        38.3019576577       31.9260222707        5.8459787350
  C        37.5706626327       30.8368691155        5.1321987239
  C        36.6077714263       31.1440151148        4.1580378523
  C        35.9841137000       30.1274126859        3.4387461489
  C        36.3063282858       28.7753829029        3.6702112877
  C        37.2417277399       28.4756284351        4.6791856006
  C        37.8695143819       29.4912322489        5.3975858646
  C        35.6932838093       27.6863414688        2.8726978943
  C        35.7192456530       27.7007187594        1.4500301765
  C        36.4240636530       28.7017965523        0.7106029677
  C        25.7393483809        8.5928716205        0.7113641536
  C        25.6550600685        8.6200690280        3.5219215897
  C        38.3256425440       31.9602726317       10.1548571924
  C        37.5974776220       30.8857191792       10.8914218375
  C        36.6590894543       31.1933617437       11.8887069607
  C        36.0416024606       30.1747047149       12.6124483055
  C        36.3478493810       28.8214148362       12.3643863227
  C        37.2638720854       28.5235297838       11.3366713257
  C        37.8828410654       29.5388881702       10.6134021539
  C        35.7350458672       27.7228839623       13.1483161605
  C        35.7402602083       27.7194727465       14.5712866246
  C        36.4329746050       28.7115656733       15.3335750610
  C        46.1350811592       26.6211101273       15.2814573065
  C        46.0866914048       26.5794135192       12.4735875758
  C        22.4749903051        3.2558307926       10.2490813018
  C        23.2028203820        4.3601973562       10.9491416637
  C        24.2217456440        4.0630399773       11.8686763245
  C        24.8780840090        5.0856180960       12.5502750907
  C        24.5367246951        6.4360453920       12.3359661047
  C        23.5444941771        6.7267757395       11.3806111317
  C        22.8839759795        5.7041621973       10.6985048397
  C        25.1794354160        7.5250323505       13.1170450899
  C        25.1461043678        7.5181184673       14.5399922139
  C        24.4335885541        6.5232592321       15.2815727159
  C        26.5600544916       17.8283990336        5.7859584636
  C        25.2613589225       17.8900388639        5.0604697073
  C        25.0126558147       18.8973617085        4.1150609359
  C        23.8049438301       18.9267288390        3.4227009838
  C        22.8136320090       17.9523584024        3.6549089188
  C        23.0575720128       16.9691112278        4.6320776715
  C        24.2664797371       16.9343163860        5.3228367907
  C        21.5481357436       17.9455160878        2.8834992812
  C        21.5564997357       17.9376951086        1.4615675692
  C        22.7659768513       17.8244217507        0.7056480909
  C        34.4271453042       17.2074268088        5.9090533732
  C        35.7194245757       17.1318651784        5.1911486456
  C        35.8876185271       16.2252582808        4.1285210810
  C        37.0664678182       16.2141172414        3.3935351630
  C        38.1281588733       17.0962765357        3.7010481001
  C        37.9653327327       17.9648832958        4.8044773691
  C        36.7788933804       17.9931371469        5.5280747098
  C        39.3678845087       17.1232839144        2.9119370495
  C        39.3533480472       17.1187230486        1.4650017150
  C        38.1633733583       17.2834843665        0.7267169002
  C        20.3123095590       17.9570849934        0.7501116475
  C        20.3226222726       17.9388635908        3.5625530000
  C        34.3606296124       17.2128987422       10.2580789656
  C        35.6606352443       17.1255771212       10.9311381050
  C        35.8754087971       16.2156934830       11.9897820852
  C        37.0683545755       16.2221506496       12.6960416057
  C        38.1204810951       17.1123095566       12.3606454869
  C        37.9234197955       17.9627182209       11.2435718600
  C        36.7170642683       17.9860504781       10.5595277092
  C        39.3603013178       17.1672345240       13.1355873302
  C        39.3515485479       17.1403567973       14.5851883662
  C        38.1640863684       17.2949702561       15.3289650580
  C        35.1074076478       26.6421723361       15.2766480774
  C        35.1473047369       26.6496868052       12.4665500464
  C        26.5537627724       17.8252612449       10.3210375070
  C        25.2422114292       17.8792078904       11.0205468552
  C        24.9649758745       18.9102234862       11.9315463202
  C        23.7491757742       18.9377501813       12.6074165541
  C        22.7812920252       17.9371978493       12.3916630655
  C        23.0499379386       16.9330994334       11.4438539463
  C        24.2675050816       16.9009777467       10.7683616010
  C        21.5185778640       17.9252059144       13.1641859631
  C        21.5409756677       17.9271927635       14.5850120921
  C        22.7585889460       17.8200303586       15.3291263249
  C        14.0429722341       17.8311942113       10.2839017189
  C        15.3492960260       17.8943694361       11.0034067420
  C        15.6097932616       18.9113357748       11.9342644594
  C        16.8196773647       18.9375269367       12.6242448546
  C        17.7991611705       17.9491156908       12.4032774160
  C        17.5442577372       16.9564816742       11.4390994888
  C        16.3339633039       16.9263809763       10.7504327736
  C        19.0654645277       17.9351979265       13.1730944080
  C        19.0597701806       17.9380160061       14.5946532333
  C        17.8492711915       17.8416648462       15.3506240213
  C        46.7935815879       17.2148291177       10.1537764538
  C        45.4920892000       17.1473851638       10.8753092925
  C        45.2835397561       16.2040581429       11.8960190697
  C        44.0956847036       16.1991251591       12.6205640537
  C        43.0686751743       17.1305928613       12.3468377938
  C        43.2715352186       18.0411222678       11.2866911554
  C        44.4642300543       18.0561508556       10.5698606430
  C        41.8218836824       17.1666100826       13.1332578896
  C        41.8381724160       17.1197955944       14.5819944733
  C        43.0320922779       17.2236658946       15.3223952603
  C        20.3040960204       17.9509080401       15.3060555801
  C        20.2898607690       17.9086989297       12.4935251721
  C        46.7803528497       17.2292199147        5.8862580598
  C        45.4811914786       17.1177995962        5.1740929955
  C        45.2909704272       16.1694104218        4.1540826781
  C        44.1087653452       16.1497170155        3.4215915371
  C        43.0676179221       17.0648167966        3.6955536934
  C        43.2477021960       17.9717062079        4.7631754655
  C        44.4367832232       18.0074244142        5.4811880965
  C        41.8262668021       17.0967081823        2.9075309618
  C        41.8405495663       17.0842185515        1.4614652071
  C        43.0343983329       17.2039342702        0.7212220737
  C        46.1529156387       26.6376686227        0.7261895006
  C        46.1612578715       26.6557346769        3.5358272674
  C        14.0391033803       17.8287670173        5.7071833733
  C        15.3546013492       17.8997159391        5.0072442691
  C        15.6253523415       18.9256773102        4.0901655087
  C        16.8498869363       18.9655444513        3.4281576977
  C        17.8276857263       17.9781229420        3.6594222437
  C        17.5624609157       16.9774322152        4.6112479905
  C        16.3400914660       16.9376099095        5.2771186953
  C        19.0938791860       17.9618873413        2.8915810924
  C        19.0747737806       17.9506595983        1.4706017170
  C        17.8566893378       17.8470976183        0.7268093047
  C        28.8442434443       14.1174518013       10.3768203853
  C        28.2785045116       12.9305841233       11.0726097939
  C        29.0109416746       12.2156298297       12.0325536764
  C        28.4337411905       11.1230756029       12.6779914881
  C        27.1124899430       10.7214807821       12.3897540155
  C        26.4058945189       11.4181567611       11.3922630521
  C        26.9777933806       12.5085910650       10.7459692185
  C        26.4472583260        9.6311820913       13.1411593476
  C        26.4046282656        9.6584659183       14.5618348514
  C        26.8903189448       10.7726048924       15.3173388565
  C        32.1689079524       21.2336473039       10.1102152278
  C        32.7541932263       22.3986516082       10.8298614641
  C        32.0047261737       23.0644405620       11.8138807096
  C        32.5718997505       24.1009197893       12.5493724421
  C        33.9033137314       24.5038774203       12.3235578619
  C        34.6341493923       23.8552466432       11.3088915093
  C        34.0719681888       22.8117122673       10.5763113635
  C        34.5287190543       25.5809756060       13.1264812318
  C        34.5166584542       25.5563828499       14.5493416485
  C        34.0106859400       24.4421651708       15.2900300104
  C        25.7729913994        8.5834222410       15.2669026518
  C        25.8166669262        8.5830350616       12.4548144698
  C        32.0745170905       21.2004391869        5.8363213732
  C        32.6547712786       22.3632569497        5.1074408313
  C        31.9271252384       23.0122980326        4.0968904118
  C        32.5038458505       24.0533177282        3.3729370647
  C        33.8232379970       24.4749942596        3.6352686061
  C        34.5307939390       23.8404334368        4.6750614771
  C        33.9591377465       22.7965351729        5.3974132119
  C        34.4669320630       25.5557531074        2.8515143716
  C        34.4853247041       25.5437529645        1.4284500541
  C        33.9946880959       24.4365909550        0.6672327758
  C        40.5953566130       17.0700910931        0.7466000648
  C        40.5990836046       17.1523008593        3.5751071453
  C        28.6605065164       14.0583598871        5.8194096865
  C        28.0610231216       12.9115600241        5.0804561356
  C        28.8216659800       12.1964743767        4.1418554308
  C        28.2536441179       11.1400784647        3.4355141248
  C        26.9096566030       10.7703657795        3.6428087220
  C        26.1655056361       11.4707420846        4.6109885827
  C        26.7316121875       12.5288702776        5.3195859140
  C        26.2873512352        9.6780936363        2.8572510600
  C        26.3235761938        9.6830540645        1.4360145631
  C        26.8496296459       10.7855143907        0.6924711537
  C        18.1351008817        3.1809153329       10.3170173744
  C        17.4049943059        4.2776874342       11.0150076367
  C        16.3910099257        3.9987450744       11.9443439859
  C        15.7428128697        5.0383165553       12.6079226937
  C        16.0923767445        6.3824309737       12.3667105160
  C        17.0795348887        6.6524257893       11.4007242363
  C        17.7292103539        5.6155200340       10.7356209386
  C        15.4679784519        7.4898967518       13.1298905502
  C        15.4840498433        7.4894440438       14.5516042773
  C        16.1862801126        6.4963374933       15.3048230488
  C        42.9458854700       31.8592090574       10.0729751693
  C        43.6460810987       30.7718065111       10.8164900907
  C        44.5908612502       31.0930518299       11.8034155902
  C        45.1964396500       30.0874245720       12.5509283399
  C        44.8707624654       28.7342089866       12.3353993704
  C        43.9459032645       28.4200161403       11.3211849307
  C        43.3372002922       29.4251864846       10.5731761105
  C        45.4880647998       27.6549843333       13.1387451017
  C        45.4926130535       27.6812670644       14.5604105186
  C        44.8056510026       28.6894021830       15.3070276457
  C        14.8551717528        8.5619752047       15.2640079003
  C        14.8720860409        8.5614052506       12.4513468652
  C        42.9467029706       31.9613026736        5.8089737078
  C        43.6918931254       30.8855964697        5.0959936658
  C        44.6551459571       31.1915503659        4.1222497405
  C        45.2764489732       30.1719594853        3.4045290552
  C        44.9538888756       28.8214392900        3.6432053157
  C        44.0220838595       28.5238297801        4.6556459354
  C        43.3939823412       29.5405435002        5.3679237278
  C        45.5625884106       27.7241596931        2.8577941713
  C        45.5331502201       27.7179184287        1.4364939978
  C        44.8269614108       28.7081492316        0.6834229291
  C        35.0942295202       26.6342954120        0.7227094072
  C        35.0838615196       26.6130014983        3.5333303493
  C        18.1484322751        3.2468752392        5.7068093178
  C        17.4295068475        4.3434986103        4.9978388647
  C        16.4158943449        4.0519816054        4.0725315478
  C        15.7674245018        5.0824261361        3.3970651814
  C        16.1201985906        6.4279839980        3.6211642499
  C        17.1096285143        6.7115231581        4.5804728270
  C        17.7574610251        5.6828252866        5.2603708118
  C        15.4897230559        7.5235543550        2.8485848028
  C        15.4957589701        7.5067817257        1.4274328497
  C        16.1928595019        6.5053822625        0.6806431527
  H        10.6717889975       12.4666903828        3.9039973660
  H        11.6933612832       10.5513654217        2.6620963440
  H        15.3901150171       11.1670119178        4.7727937187
  H        14.3495209271       13.0702015030        6.0182594720
  H        13.3745111985       11.6300190909        1.2011144127
  H        50.3231834393       22.7521414706        3.9909607905
  H        49.3196796635       24.6265169600        2.6843766496
  H        45.6376689114       24.1548545774        4.8576236845
  H        46.6587761454       22.2837169603        6.1656547313
  H        47.6286884005       23.5759601906        1.2465325073
  H        14.8702872577        8.5875844993        4.6083843664
  H        50.2874649530       22.7055642886       12.0569193750
  H        49.2691118472       24.5783973714       13.3573665935
  H        45.6063102709       24.1027764340       11.1517787545
  H        46.6486439220       22.2472371828        9.8378474567
  H        47.6067049285       23.5517782509       14.7968126471
  H        40.5964000731       17.2257774342       11.3819646353
  H        48.6852959407       14.0951983577        7.7990943795
  H        10.6798997112       12.4671701815       12.0929760813
  H        11.6870276813       10.5246027620       13.2968543105
  H        15.3910597883       11.1562796873       11.2047468125
  H        14.3629441351       13.0852887849        9.9890948641
  H        13.3735409046       11.6206109158       14.7526992808
  H        47.9288201148       14.2212787662        9.7105283588
  H        47.7803029840       14.3763376257        6.4929226519
  H        49.0763605323       18.5491253922       10.8651640113
  H        10.4130671209       14.1347118437        7.9988568953
  H        24.4767515893        3.0214782338        3.9093510728
  H        25.6078383052        4.8727111111        2.6637155386
  H        23.1863189674        7.7470280597        4.7557422637
  H        22.0770416312        5.8859422188        6.0063309745
  H        23.8386946195        5.7691771485        1.1868052253
  H        36.3714990363       32.1880922093        3.9664723729
  H        35.2371323725       30.3728291831        2.6869599723
  H        37.5016213217       27.4357099466        4.8662767382
  H        38.6157069969       29.2640492356        6.1554373193
  H        36.9899099048       29.4521665321        1.2551102867
  H        25.6573935917        8.6088320434        4.6103538108
  H        36.4340137454       32.2373850337       12.0947339212
  H        35.3092882787       30.4207606393       13.3782687722
  H        37.5141778706       27.4835877544       11.1374151468
  H        38.6121432007       29.3120859001        9.8394736498
  H        37.0066235360       29.4691023470       14.8073813779
  H        46.1076140503       26.5859400671       11.3855375235
  H        44.6681304497       35.1158147298        7.8140731826
  H        24.4875717030        3.0213043536       12.0335892054
  H        25.6677419466        4.8460234289       13.2593389441
  H        23.2685006277        7.7645351875       11.2046936040
  H        22.1009508749        5.9276952598        9.9774524245
  H        23.8752656112        5.7667278887       14.7379843502
  H        44.9527719694       34.3890463611        9.6941296269
  H        44.9012950674       34.2068002364        6.4902349251
  H        40.6656934068       33.2082522230       10.8526772785
  H        23.1512790999        1.9568909238        8.0011361923
  H        25.7746165077       19.6530449359        3.9388268927
  H        23.6134215329       19.7124120949        2.6950994041
  H        22.3008828737       16.2096308539        4.8177323665
  H        24.4689945120       16.1618514102        6.0608964097
  H        23.7062371623       17.7067422803        1.2366281712
  H        35.0719574296       15.5485713216        3.8840982941
  H        37.1872768769       15.5078744035        2.5754913970
  H        38.7682222097       18.6556386848        5.0530767004
  H        36.6423682102       18.6927872149        6.3493686073
  H        37.2284186996       17.4453330299        1.2548569669
  H        20.3254360931       17.9677720129        4.6507015016
  H        35.0891960740       15.5109066389       12.2505621136
  H        37.2157908194       15.5181282296       13.5116110165
  H        38.7155810934       18.6538283287       10.9630814318
  H        36.5550515074       18.6822582772        9.7399434311
  H        37.2287638662       17.4667690548       14.8046894545
  H        35.1243983216       26.6732735445       11.3786297343
  H        28.5075647263       21.0922283821        7.8756230737
  H        25.7113773750       19.6846625533       12.0919983617
  H        23.5333924861       19.7379358973       13.3120714564
  H        22.3081155666       16.1558773306       11.2722496294
  H        24.4926509362       16.1130538142       10.0536546369
  H        23.6931422742       17.6998754403       14.7889299999
  H        28.9561682412       21.7361701115        9.7107424098
  H        29.1706361854       21.7178979186        6.5162069108
  H        32.2944771151       18.6724798712       10.8202685597
  H        27.3546907785       19.0676388973        8.0655401688
  H        14.8530438630       19.6744248040       12.1018687432
  H        17.0207050136       19.7303777878       13.3415352213
  H        18.2923334933       16.1863688355       11.2624763637
  H        16.1212829282       16.1481541959       10.0213671502
  H        16.9087138301       17.7297420767       14.8191664662
  H        46.0729351919       15.4892532427       12.1170379646
  H        43.9440207396       15.4607718076       13.4045623229
  H        42.4961541865       18.7713547692       11.0644674563
  H        44.6325583455       18.7834216929        9.7789582536
  H        43.9721975134       17.3606722268       14.7963730151
  H        20.2859396130       17.9291830927       11.4052130169
  H        46.0886588206       15.4623205631        3.9379401649
  H        43.9715509602       15.4132968536        2.6330969715
  H        42.4576207983       18.6858895316        4.9853219449
  H        44.5922755259       18.7366084503        6.2726482993
  H        43.9757723928       17.3249865539        1.2485594501
  H        46.1976911095       26.6815590509        4.6233001849
  H        52.7401049943       21.0618957248        8.1942468110
  H        14.8665534306       19.6850341234        3.9146729488
  H        17.0622661195       19.7642317524        2.7206946134
  H        18.3103184036       16.2083892414        4.7932250404
  H        16.1171800795       16.1550194405        5.9983138061
  H        16.9216709115       17.7393735545        1.2684379007
  H        52.3190433507       21.6723174084        6.2957772989
  H        52.0104321611       21.7001651796        9.4947519197
  H        49.0613698496       18.6058192122        5.2063459133
  H        13.2459082450       19.0173940669        7.9759462980
  H        30.0262730715       12.5317432163       12.2627693305
  H        29.0031571691       10.5691044423       13.4211879246
  H        25.3855292283       11.1200174347       11.1605500747
  H        26.4251895233       13.0648528887        9.9933282966
  H        27.2670334506       11.6417018109       14.7864601544
  H        30.9828296511       22.7426044934       12.0002744436
  H        31.9847673762       24.6135837411       13.3081406495
  H        35.6648611011       24.1532755576       11.1279853780
  H        34.6474188509       22.2874636305        9.8168419544
  H        33.6612055556       23.5683542594       14.7474792308
  H        25.8629103241        8.5663483539       11.3672630727
  H        30.9152793493       22.6769400796        3.8807515604
  H        31.9318657595       24.5551844395        2.5956296424
  H        35.5521079008       24.1512385545        4.8851193744
  H        34.5166201269       22.2860907005        6.1790403747
  H        33.6331250904       23.5581132412        1.1941638517
  H        40.6019372881       17.1267707609        4.6632757957
  H        32.5299126640       14.1431364992        8.1577378694
  H        29.8606092971       12.4769838410        3.9852153837
  H        28.8504671460       10.5825291996        2.7169977556
  H        25.1255774808       11.1972896500        4.7773873969
  H        26.1528984598       13.0857940535        6.0527558696
  H        27.1945939700       11.6637880938        1.2304629501
  H        33.2897712968       14.2383475732        6.3519126657
  H        33.4116978902       14.3101290968        9.5541365727
  H        32.0818782754       18.5189690470        5.1174285434
  H        30.2098645576       14.1397838111        8.0778981139
  H        16.1206206590        2.9620437197       12.1320314253
  H        14.9547000138        4.8184149899       13.3248892913
  H        17.3596871512        7.6856038224       11.2059283691
  H        18.5095742523        5.8187540053       10.0061494964
  H        16.7530847373        5.7391288868       14.7714158035
  H        44.8267192325       32.1400982251       11.9782891571
  H        45.9356901417       30.3410407227       13.3075034154
  H        43.6840073208       27.3778769421       11.1502488311
  H        42.6015292847       29.1895939160        9.8076951957
  H        44.2300650876       29.4370569042       14.7688454796
  H        14.8474689742        8.5443473340       11.3631482939
  H        44.8978136682       32.2342360936        3.9297895727
  H        46.0222769528       30.4131275197        2.6502226354
  H        43.7663317728       27.4840069654        4.8483399780
  H        42.6488268522       29.3174304909        6.1275801991
  H        44.2681851679       29.4709691230        1.2177950819
  H        35.0434800945       26.6264595455        4.6209334756
  H        36.6051813815       35.1339588218        8.1806768205
  H        16.1460445626        3.0122904343        3.9015854161
  H        14.9762489466        4.8552734146        2.6858025855
  H        17.3912291693        7.7472237747        4.7590244643
  H        18.5385965915        5.8936420263        5.9868955592
  H        16.7647834887        5.7554161431        1.2189285529
  H        36.2786866796       34.4822269542        6.2730820074
  H        36.3809315486       34.2091321731        9.4997466247
  H        40.5807079699       33.2023820299        5.1537946211
  H        17.4717038935        1.9475008088        7.9741828283
  H        28.5949295431       18.9744674668       12.3450644469
  H        28.7683902716       18.8091782477        3.7588473740
  H        30.6559765916       15.4032724394        3.8288770765
  H        32.5843033220       16.2696048497       12.6247147652
  H        18.8527198362        0.8690394706       12.3347075640
  H        40.5282107999       35.2290994501        3.9521143603
  H        42.3236040400       34.4184765068        3.5910108522
  H        22.0876986340        0.6914752791       12.3524893338
  H        11.5976583946       18.7121605574       12.3806398813
  H        52.2646124992       18.4297540132        3.6792275082
  H        49.2529780820       16.4817863596        3.5879988743
  H        10.1505663860       15.7984666507       12.2918313717
  H        50.8487395746       17.6921290567        3.9548687490
  H        10.0451714938       17.3947685905       12.0519573613
  H        20.2137687343        0.0019821542       12.0422360286
  H        39.1834045243       36.1244183306        3.6867393146
 Ni        30.5671871387       17.5462862195        2.7457309231
 Ni        30.9890251834       16.4243548779       -1.2561568208
 Ni        30.1397378717       17.6509509944        0.3407532231
 Ni        30.6081270756       17.6690827181       12.6601389547
  O        10.6495210662       14.3650540718        5.4853845515
  O        12.6129737017       14.6572962065        6.5837195779
  O        49.1473293770       16.8460268759        7.9899066912
  O        50.3497694093       20.9374286862        5.6485079632
  O        48.3482436801       20.5937279745        6.6660541632
  O        11.0496377760       17.0545702786        6.5001896802
  O        50.3204729941       20.8821059494       10.4068811547
  O        48.3464496970       20.5869466703        9.3269125487
  O        49.5429030422       18.2485895229       10.0685012404
  O        12.3582131388       18.6243612435        7.9997189553
  O        48.6927234111       14.1485386796        6.7508802709
  O         8.2091690375       14.2105443066        9.3230821446
  O        10.7348167860       14.5065863130       10.6645430242
  O        12.5715888138       14.5826171558        9.3286294412
  O        22.8445479869        2.0425790106        5.4866591094
  O        21.6062122322        3.5930967976        6.5881824167
  O        42.0579084327       34.1371326873        7.9792245910
  O        37.9812329162       33.1348756572        5.5716728214
  O        39.2169719985       31.5742994418        6.6650748863
  O        20.3085503432        1.0401828269        6.5021842856
  O        38.0237966800       33.1843023967       10.4156117104
  O        39.2183730120       31.5829664721        9.3270663305
  O        40.6521809056       33.7693167753       10.0603021294
  O        18.2562121714        1.3760361560        7.9968293705
  O        44.6221228343       35.1005961995        6.7587991254
  O        24.2054760928       -0.0000863253        9.3208465070
  O        22.7539490802        2.0570936470       10.5836913209
  O        21.6270770648        3.5982554546        9.3458628198
  O        27.4596423854       18.6945852399        5.4888475692
  O        26.6912011306       16.9197829675        6.6709348484
  O        30.6506688201       19.3319889059        8.0515950027
  O        33.5366297737       16.3299333878        5.6563171022
  O        34.2666734811       18.1791986550        6.7402443753
  O        29.5328271847       17.0138426696        6.5818607257
  O        33.4456060488       16.3373114484       10.5754425138
  O        34.1721975961       18.1669532535        9.4186070397
  O        31.5227932878       18.2377044825       10.4207536100
  O        30.2951853566       15.1072467619        8.0692424697
  O        28.5531900234       21.0264749747        6.8170505349
  O        28.5087451184       20.9605286040        9.3315310973
  O        27.4478017432       18.6781555090       10.6538679194
  O        26.6893352860       16.9274524000        9.4160613004
  O        13.1464367329       18.6939795381       10.5863862121
  O        13.9178278907       16.9157127574        9.4038898826
  O        50.5940207388       19.3500194408        8.0205005903
  O        47.6785877917       16.3285429717       10.4185948618
  O        46.9511947730       18.1762373945        9.3239286729
  O        11.0676570435       17.0160750651        9.4900202872
  O        47.6769832790       16.3352571275        5.6524398819
  O        46.9255649017       18.2350788169        6.6634993677
  O        49.5677258798       18.3179818944        5.9820858699
  O        10.3178573571       15.1007259367        7.9971179285
  O        52.6705528964       21.0280934546        9.2418087056
  O        12.1467069286       20.8912997625        6.6731730346
  O        13.1054244222       18.6143748093        5.3260506669
  O        13.9557129164       16.9862939141        6.6653287729
  O        30.0341926299       14.5124297335       10.6705054575
  O        28.0901825436       14.6562669083        9.4961433749
  O        32.0685682599       16.8598483308        8.0725304459
  O        30.9490361507       20.9429897777       10.3399452799
  O        32.9481380200       20.5708830210        9.3300154330
  O        29.5654321481       17.0745064119        9.5720084057
  O        30.8586922185       20.8766426890        5.5910892858
  O        32.8584527661       20.5871937968        6.6506755122
  O        31.6150744944       18.2414690434        5.9230742879
  O        28.2403037022       18.6691526878        8.0657953090
  O        32.4949296868       14.2113840233        9.2419655651
  O        32.4012870806       14.2143573466        6.7468160673
  O        29.8369164308       14.4332805474        5.4875073964
  O        27.9601351699       14.5843598868        6.7530979539
  O        17.8893798917        1.9664270889       10.6626518570
  O        18.9564971122        3.5270416997        9.4080076570
  O        39.1686303281       34.1384718010        7.9971985012
  O        43.2800532302       33.0590199968       10.3315459282
  O        42.0341217403       31.5066897602        9.2415651385
  O        20.3177016993        1.0365653440        9.4800438852
  O        43.2759399788       33.1827502487        5.5750700717
  O        42.0051396323       31.5843145049        6.5830967321
  O        40.5789476506       33.7750146988        5.9359821507
  O        22.3672748305        1.3848883368        7.9981820442
  O        36.6728566912       35.0997208417        9.2332964916
  O        16.4457697426        0.0639904297        6.6681942588
  O        17.9364812531        2.0431462819        5.3265719560
  O        18.9193322229        3.5929912295        6.6660459841
  O        29.6861338484       18.7646947039        4.0831969038
  O        29.5281733335       19.0528031284       12.0726787462
  O        31.1739137633       16.1921427444        4.0804505333
  O        31.6393022128       16.1136553063       12.8295198956
  O        39.4568476944       35.2437955270        4.0020519294
  O        19.1407027752        0.0043473203       11.9905500176
  O        41.9694613039       35.1727283510        4.0872926679
  O        21.6911867709       -0.0693525611       11.8960286526
  O        51.3645543808       18.6142516006        4.0054974954
  O        10.7509645434       18.7475732587       11.9049450179
  O        50.0797123308       16.4130136677        4.0911904508
  O         9.5242271965       16.4831891312       11.9912928435
 Zr         9.2904475366       16.0535062948        6.1815041007
 Zr        49.8303704263       16.0079483905        9.7473037939
 Zr        22.0730810332        0.0286908974        6.1895429382
 Zr        42.4609205178       35.1526011383        9.8014997282
 Zr        29.5567631261       19.0512886624        6.2295653784
 Zr        29.5372737182       19.1969313176        9.8335719968
 Zr        11.0334660058       19.0523532963        9.8265559183
 Zr        11.0393345969       19.1550485647        6.2526654661
 Zr        31.3493019732       16.0772864437        9.7904824590
 Zr        31.3431283235       15.9890806299        6.2293848571
 Zr        18.6012015632       -0.0018091872        9.7633156746
 Zr        18.5066268890       -0.0080770978        6.2136835876
 Zr        12.2956351356       16.3239786505        7.9899518052
 Zr        48.6083940930       18.8306088659        8.0095903177
 Zr        20.3153732833        2.4735923659        7.9916344480
 Zr        40.6436401570       32.6858630150        7.9780419179
 Zr        28.3103384471       16.3285561546        8.0779724042
 Zr        32.6244990417       18.8501988526        7.9740158824
  H        29.3672340759       16.9505592006        1.7106961087
  H        31.2140098711       18.3925281269        1.4213852006
