     562
 i =      215, E =     -4678.9399550172
  C        11.8586287056       14.0534455298        5.7414860037
  C        12.4561079619       12.8905702141        5.0231122555
  C        11.7043625024       12.1713743407        4.0816882569
  C        12.2807885176       11.1091405319        3.3894189239
  C        13.6214801801       10.7395478772        3.6168912875
  C        14.3547180367       11.4434691568        4.5900644105
  C        13.7817866270       12.5084371890        5.2815553786
  C        14.2609113676        9.6487850220        2.8435076463
  C        14.2556675996        9.6564198780        1.4218032463
  C        13.7422419131       10.7584251231        0.6678982423
  C        49.1266444544       21.2333323762        5.8798066398
  C        48.5499062641       22.4012332807        5.1527828684
  C        49.2996481391       23.0677845933        4.1710266258
  C        48.7327533225       24.1068614327        3.4377372212
  C        47.4025819308       24.5093506920        3.6670846192
  C        46.6720175569       23.8613312885        4.6814489738
  C        47.2343886021       22.8164378272        5.4108690487
  C        46.7723509273       25.5869904933        2.8697612988
  C        46.7611378217       25.5572579912        1.4479968822
  C        47.2607162238       24.4420249652        0.7044762203
  C        14.8593021840        8.5699230230        0.7085075829
  C        14.8920110066        8.5969954951        3.5201357461
  C        49.1130246577       21.2035161669       10.1452949291
  C        48.5278017078       22.3650116034       10.8722288399
  C        49.2667070780       23.0248541731       11.8659904131
  C        48.6904915887       24.0594199096       12.5975030022
  C        47.3604875058       24.4571381430       12.3584901887
  C        46.6405009486       23.8132207250       11.3340166482
  C        47.2139316362       22.7772897555       10.6021819693
  C        46.7220048310       25.5319972609       13.1496045440
  C        46.7334805514       25.5281713982       14.5713226355
  C        47.2484616019       24.4287520614       15.3277129528
  C        40.6024220253       17.0933143357       15.3086770512
  C        40.6027398096       17.1041221359       12.4969055592
  C        11.8825687339       14.0864296294       10.2856086948
  C        12.4716430230       12.9105794589       10.9898763723
  C        11.7137516894       12.1769996533       11.9153981793
  C        12.2801103296       11.0943569911       12.5837063163
  C        13.6190725076       10.7208065396       12.3523966467
  C        14.3575002626       11.4368561967       11.3923005169
  C        13.7922963666       12.5181897057       10.7196835630
  C        14.2523892629        9.6238219233       13.1227454668
  C        14.2511040889        9.6437420977       14.5445747981
  C        13.7413599734       10.7527457540       15.2916459544
  C        22.5036373478        3.2433510741        5.7433353037
  C        23.1999728947        4.3452678802        5.0206829227
  C        24.1973221659        4.0606621150        4.0762030145
  C        24.8171670824        5.0958383510        3.3811044402
  C        24.4548005025        6.4381430743        3.6096484446
  C        23.4787709052        6.7142688544        4.5847452853
  C        22.8552285752        5.6809951610        5.2790376649
  C        25.0713247181        7.5424547911        2.8399098031
  C        25.0820102488        7.5314077032        1.4184813310
  C        24.3983020766        6.5310122433        0.6577843631
  C        38.3012749930       31.9264812109        5.8477985308
  C        37.5688896574       30.8365310062        5.1380055430
  C        36.6091506859       31.1411990286        4.1601060536
  C        35.9869847879       30.1222728097        3.4430962592
  C        36.3079706007       28.7710990510        3.6809037656
  C        37.2384699622       28.4740431056        4.6950028038
  C        37.8650495101       29.4918120982        5.4108399942
  C        35.6999061317       27.6800816874        2.8833376829
  C        35.7335037824       27.6929393725        1.4611942258
  C        36.4417625237       28.6931956491        0.7233908979
  C        25.7244743894        8.5990052742        0.7120477295
  C        25.6486825565        8.6204060044        3.5227360073
  C        38.3270588356       31.9601985093       10.1567100808
  C        37.6030559013       30.8857569385       10.8971397112
  C        36.6729373203       31.1928754294       11.9023548831
  C        36.0597718554       30.1738222857       12.6293470420
  C        36.3611929871       28.8203559802       12.3759821164
  C        37.2690159240       28.5233366754       11.3406275400
  C        37.8843412465       29.5389296327       10.6147684257
  C        35.7505134445       27.7204932824       13.1596723882
  C        35.7594544519       27.7133999536       14.5823726906
  C        36.4534250823       28.7035520404       15.3464546432
  C        46.1354995395       26.6208121387       15.2814842376
  C        46.0882482134       26.5805141797       12.4735928152
  C        22.4751970370        3.2563157714       10.2489875523
  C        23.2022336758        4.3609069411       10.9482394029
  C        24.2142820925        4.0649751220       11.8758533933
  C        24.8686646648        5.0886837430       12.5574537067
  C        24.5325530352        6.4393322457       12.3354426823
  C        23.5483684258        6.7284690430       11.3711614217
  C        22.8894265494        5.7048423313       10.6892439816
  C        25.1716852989        7.5296680713       13.1172935204
  C        25.1332267096        7.5243965991       14.5401145131
  C        24.4189656016        6.5303476140       15.2811185862
  C        26.5566566313       17.8281178281        5.7879120374
  C        25.2566687066       17.8876874948        5.0622552515
  C        25.0074802057       18.8933806639        4.1156703793
  C        23.8000746426       18.9205976649        3.4224627715
  C        22.8101095679       17.9454952069        3.6558518462
  C        23.0544635491       16.9635176122        4.6339257589
  C        24.2632872542       16.9309811241        5.3251758534
  C        21.5450066466       17.9365542333        2.8837974422
  C        21.5539126230       17.9258683485        1.4619532468
  C        22.7640555837       17.8103077442        0.7075848175
  C        34.4178934319       17.2184948352        5.9140066988
  C        35.7149058441       17.1535809083        5.1772309465
  C        35.9080191485       16.1928737283        4.1720769658
  C        37.0917954999       16.1690077063        3.4390065516
  C        38.1147053190       17.1060597703        3.6864815136
  C        37.9237542695       18.0456836062        4.7181956134
  C        36.7385716404       18.0738919218        5.4504795006
  C        39.3673544375       17.1119949107        2.8940143616
  C        39.3568873697       17.1229432707        1.4712077311
  C        38.1467322922       17.2479257389        0.7192332712
  C        20.3104413296       17.9459384192        0.7493436751
  C        20.3191444311       17.9317916371        3.5617320615
  C        34.3637961769       17.1847782464       10.2641355081
  C        35.6720703072       17.0976860823       10.9718545301
  C        35.9042006898       16.1268708666       11.9591599468
  C        37.1092150969       16.1088359941       12.6576033394
  C        38.1148557538       17.0601542281       12.3917010328
  C        37.8896644428       18.0007059979       11.3683179933
  C        36.6848627737       18.0236635111       10.6713607477
  C        39.3745901219       17.0893619931       13.1706503946
  C        39.3605685051       17.1120070092       14.5927995164
  C        38.1486024675       17.2406398951       15.3424088343
  C        35.1273018441       26.6348474748       15.2865096171
  C        35.1587967616       26.6499704594       12.4768192379
  C        26.5618030255       17.8224211854       10.3276263148
  C        25.2498702832       17.8749583167       11.0299176519
  C        24.9754580899       18.9005961073       11.9473006845
  C        23.7576253682       18.9288276969       12.6200781894
  C        22.7862885882       17.9337391880       12.3951925848
  C        23.0534355293       16.9339094375       11.4427293978
  C        24.2725275634       16.9017187717       10.7699627934
  C        21.5217003882       17.9205450354       13.1649226281
  C        21.5414838829       17.9167431799       14.5858457515
  C        22.7580893090       17.8061881139       15.3311237873
  C        14.0450373739       17.8316512602       10.2841302710
  C        15.3510203016       17.8951756688       11.0015956343
  C        15.6104944994       18.9084096703       11.9371773636
  C        16.8207952846       18.9335353478       12.6262320090
  C        17.8024789465       17.9480732524       12.4003633511
  C        17.5489697616       16.9604117224       11.4304994261
  C        16.3382629401       16.9309489108       10.7427600928
  C        19.0682188001       17.9315372068       13.1710105260
  C        19.0602911888       17.9299832137       14.5925427600
  C        17.8491556129       17.8318896846       15.3472968512
  C        46.7977439282       17.2162189747       10.1570578168
  C        45.4986886212       17.1458402222       10.8937335598
  C        45.2871923756       16.1639476025       11.8747019333
  C        44.0994024225       16.1370348739       12.6025904254
  C        43.0879444257       17.0916492062       12.3748710031
  C        43.2955246974       18.0512773490       11.3648467089
  C        44.4844923973       18.0821639437       10.6377513681
  C        41.8330152100       17.0987057124       13.1673843281
  C        41.8451503449       17.1047543596       14.5910145205
  C        43.0573581922       17.2040256720       15.3444823609
  C        20.3037630354       17.9405396469       15.3053384299
  C        20.2936284950       17.9074598930       12.4928387057
  C        46.7836858126       17.2332826096        5.8843736408
  C        45.4822260019       17.1303259447        5.1613899823
  C        45.2655664955       16.1336752238        4.1972888750
  C        44.0779579880       16.1050834423        3.4692779646
  C        43.0751119041       17.0702576859        3.6867558895
  C        43.2838343436       18.0389782637        4.6867184565
  C        44.4724109831       18.0737245773        5.4100651696
  C        41.8243348958       17.0868519348        2.8937450682
  C        41.8410627631       17.0968059159        1.4717510729
  C        43.0553015272       17.1973924996        0.7218601411
  C        46.1532272854       26.6371977735        0.7262494815
  C        46.1626382293       26.6562552042        3.5358904793
  C        14.0396816967       17.8286152806        5.7066025814
  C        15.3533959204       17.8984233923        5.0068171836
  C        15.6220693851       18.9197621560        4.0837596133
  C        16.8459093555       18.9573120890        3.4208972780
  C        17.8252879256       17.9724569902        3.6570901759
  C        17.5623584542       16.9773427521        4.6155068705
  C        16.3407141213       16.9394685789        5.2822073037
  C        19.0910587492       17.9539264027        2.8895098154
  C        19.0723251016       17.9408802275        1.4686428194
  C        17.8551025036       17.8366766369        0.7235105392
  C        28.8445592543       14.1188340971       10.3782743667
  C        28.2763415938       12.9329425509       11.0762898275
  C        29.0003777316       12.2290965338       12.0501893443
  C        28.4215146149       11.1372042352       12.6953443436
  C        27.1064607238       10.7259502070       12.3929377248
  C        26.4084167681       11.4121651732       11.3824998988
  C        26.9823466533       12.5018042958       10.7365692828
  C        26.4380662190        9.6369951636       13.1431031610
  C        26.3887709891        9.6665540738       14.5635530326
  C        26.8690135827       10.7827505394       15.3196285800
  C        32.1809093465       21.2366812301       10.1104205063
  C        32.7678473124       22.3990695773       10.8376050039
  C        32.0221433873       23.0557654633       11.8294987282
  C        32.5893011082       24.0925553204       12.5652977192
  C        33.9169106851       24.5026160824       12.3318961626
  C        34.6438063352       23.8627304982       11.3092800178
  C        34.0807815623       22.8203274173       10.5755794052
  C        34.5438545855       25.5785147774       13.1355439378
  C        34.5368984248       25.5498042405       14.5580437404
  C        34.0329781171       24.4334719831       15.2973835213
  C        25.7577842371        8.5905954830       15.2676760783
  C        25.8117152501        8.5866715973       12.4561045176
  C        32.0713658944       21.1927476043        5.8402630620
  C        32.6551976255       22.3570128549        5.1097162580
  C        31.9328361851       23.0037182696        4.0947573405
  C        32.5122329905       24.0447681753        3.3722419370
  C        33.8294939515       24.4676597123        3.6410582588
  C        34.5321417278       23.8355529181        4.6852968131
  C        33.9570198716       22.7921928892        5.4060244526
  C        34.4762305630       25.5483497185        2.8594543218
  C        34.5020481039       25.5350943038        1.4367338014
  C        34.0152094475       24.4269071194        0.6742989683
  C        40.5996327854       17.0937194936        0.7546796064
  C        40.5961320996       17.1101454242        3.5653885684
  C        28.6609584012       14.0562588955        5.8202755182
  C        28.0586751764       12.9089950642        5.0819240759
  C        28.8146680031       12.1986301046        4.1365462204
  C        28.2443255203       11.1436094540        3.4299947726
  C        26.9024334124       10.7710293965        3.6444665994
  C        26.1628267739       11.4666071205        4.6192963947
  C        26.7316050540       12.5235091300        5.3277282300
  C        26.2774300097        9.6807050197        2.8586925133
  C        26.3079517109        9.6890640460        1.4373927441
  C        26.8287079551       10.7945576969        0.6947491825
  C        18.1353623712        3.1809115027       10.3170487161
  C        17.4054619536        4.2779891680       11.0153459362
  C        16.3895840120        3.9992665143       11.9425986047
  C        15.7414987310        5.0389927327       12.6061508262
  C        16.0931293094        6.3828302175       12.3667058329
  C        17.0825532379        6.6527157996       11.4030819306
  C        17.7320394791        5.6156220664       10.7379911704
  C        15.4685990717        7.4903415802       13.1299082997
  C        15.4839434858        7.4896442710       14.5516424970
  C        16.1854179684        6.4959467251       15.3047856092
  C        42.9457843481       31.8595604298       10.0728355404
  C        43.6462417039       30.7718973535       10.8168044605
  C        44.5916734424       31.0933559037       11.8029182273
  C        45.1974733071       30.0878899273       12.5506194847
  C        44.8712405741       28.7347968817       12.3357133012
  C        43.9455054049       28.4203377557       11.3224585233
  C        43.3365668127       29.4253935105       10.5743934178
  C        45.4888657896       27.6555108394       13.1388902376
  C        45.4928491216       27.6809909690       14.5605895860
  C        44.8057048586       28.6889809658       15.3072289963
  C        14.8551390995        8.5622086091       15.2640653872
  C        14.8734717417        8.5622564973       12.4513926342
  C        42.9464659149       31.9616174726        5.8090605619
  C        43.6918125094       30.8854780385        5.0956348663
  C        44.6561388508       31.1914773965        4.1231037194
  C        45.2777247299       30.1719441855        3.4053497678
  C        44.9542362743       28.8215935443        3.6431645355
  C        44.0210423402       28.5238509006        4.6541866151
  C        43.3927060789       29.5405630653        5.3663926649
  C        45.5632132270       27.7241848160        2.8578611022
  C        45.5333655009       27.7174125749        1.4365575171
  C        44.8269254369       28.7075707885        0.6836256806
  C        35.1119422647       26.6259227263        0.7324009307
  C        35.0875793505       26.6076940617        3.5428402217
  C        18.1488060678        3.2468525608        5.7067227082
  C        17.4303247248        4.3437444899        4.9972383921
  C        16.4145345445        4.0524766261        4.0743141935
  C        15.7661474797        5.0830793014        3.3989282259
  C        16.1213320708        6.4282920053        3.6209409320
  C        17.1134119939        6.7116853306        4.5774758621
  C        17.7611127191        5.6828046224        5.2573011190
  C        15.4905187884        7.5238835576        2.8485254242
  C        15.4957267334        7.5069202704        1.4273774058
  C        16.1920420035        6.5049618665        0.6806037143
  H        10.6721423407       12.4652738793        3.9048342784
  H        11.6944215385       10.5504252415        2.6631235307
  H        15.3918530420       11.1691181065        4.7715861806
  H        14.3513508069       13.0718048451        6.0168071227
  H        13.3754228293       11.6306491569        1.2011745242
  H        50.3220676944       22.7471443152        3.9857329849
  H        49.3190310659       24.6215052624        2.6795780400
  H        45.6428561409       24.1628361912        4.8652744471
  H        46.6636176484       22.2918931431        6.1736255116
  H        47.6289180546       23.5754791107        1.2461149064
  H        14.8728815952        8.5884968599        4.6084546540
  H        50.2864105635       22.7013038143       12.0615294302
  H        49.2686622161       24.5741970800       13.3616282781
  H        45.6114711140       24.1112850230       11.1442135341
  H        46.6533749951       22.2558967930        9.8299054784
  H        47.6069719729       23.5515152309       14.7968339737
  H        40.6021500222       17.0654921517       11.4090974686
  H        48.6868977226       14.0952660444        7.7999132847
  H        10.6801523111       12.4658809731       12.0923471226
  H        11.6880268669       10.5236316351       13.2958934821
  H        15.3930952390       11.1592156651       11.2069038949
  H        14.3650322157       13.0878625013        9.9917029444
  H        13.3744335701       11.6213102317       14.7529977943
  H        47.9299855162       14.2187033140        9.7112374503
  H        47.7798591114       14.3736324195        6.4951755931
  H        49.0817252431       18.5517725934       10.8668670639
  H        10.4157784393       14.1344004665        7.9990243059
  H        24.4673582144        3.0218087853        3.9001780369
  H        25.5948159708        4.8747213316        2.6532508223
  H        23.1894557879        7.7474336377        4.7654690557
  H        22.0829089051        5.8849605463        6.0166761432
  H        23.8238053121        5.7754196159        1.1858416343
  H        36.3747848185       32.1848028865        3.9637059033
  H        35.2429026770       30.3647876740        2.6875272123
  H        37.4955525871       27.4344299888        4.8874767796
  H        38.6082529157       29.2674325902        6.1723928925
  H        37.0072686460       29.4428576431        1.2692113014
  H        25.6554013064        8.6063785324        4.6111056147
  H        36.4507343385       32.2368458567       12.1117739110
  H        35.3334855102       30.4196570470       13.4009366647
  H        37.5150921361       27.4833003780       11.1367266944
  H        38.6071658307       29.3123747184        9.8347305505
  H        37.0288078318       29.4607639647       14.8216637714
  H        46.1098759948       26.5881463244       11.3855632822
  H        44.6681509176       35.1160590510        7.8142285569
  H        24.4763719354        3.0233242937       12.0470151858
  H        25.6527104352        4.8500284291       13.2730070390
  H        23.2770931967        7.7662885897       11.1883780451
  H        22.1122196333        5.9276556745        9.9617378504
  H        23.8596605130        5.7747148288       14.7373366667
  H        44.9532405289       34.3896792852        9.6946406905
  H        44.9014720302       34.2068546321        6.4906089231
  H        40.6651118173       33.2085508953       10.8528724533
  H        23.1508007315        1.9578141131        8.0011207105
  H        25.7693894867       19.6488725225        3.9384022836
  H        23.6084524825       19.7047510618        2.6932299899
  H        22.2987422301       16.2031294433        4.8198084334
  H        24.4673845566       16.1597329483        6.0641047409
  H        23.7034355358       17.6916797808        1.2399223020
  H        35.1108577850       15.4810455882        3.9699509142
  H        37.2375093264       15.4160654130        2.6675750913
  H        38.7028088585       18.7792411839        4.9153535525
  H        36.5769584383       18.8172303960        6.2277150736
  H        37.2102435536       17.3825904994        1.2530858992
  H        20.3215498899       17.9631833567        4.6498044344
  H        35.1302150544       15.3931841250       12.1735491645
  H        37.2843662783       15.3523786703       13.4194455648
  H        38.6569552228       18.7417298019       11.1537003769
  H        36.4950190630       18.7682380743        9.9018700986
  H        37.2126031393       17.3693688745       14.8067215054
  H        35.1305476650       26.6772592999       11.3891209822
  H        28.5038852317       21.0829462998        7.8729344061
  H        25.7261182518       19.6695210136       12.1148131964
  H        23.5437255064       19.7253919586       13.3293975845
  H        22.3095223382       16.1600674821       11.2650527198
  H        24.4969715422       16.1178992430       10.0505745081
  H        23.6928892752       17.6852687262       14.7915839644
  H        28.9787774919       21.7229121248        9.7590553284
  H        29.2012845719       21.6978263536        6.5453892770
  H        32.1567734086       18.6340406649       10.9210367329
  H        27.3683996714       19.0285613776        8.0773178472
  H        14.8529302061       19.6696579274       12.1092420914
  H        17.0208356429       19.7232312572       13.3472403977
  H        18.2988680126       16.1932337325       11.2489228894
  H        16.1275537808       16.1557866194       10.0099181532
  H        16.9090917759       17.7194250541       14.8151534628
  H        46.0716030688       15.4343032639       12.0621357307
  H        43.9419965732       15.3675168187       13.3552806349
  H        42.5260905737       18.7981817425       11.1801451694
  H        44.6565636593       18.8399270108        9.8767469976
  H        43.9966125852       17.3169509900       14.8106545565
  H        20.2916794504       17.9324900680       11.4046043569
  H        46.0430548210       15.3938122368        4.0208015872
  H        43.9144086669       15.3293843696        2.7242930729
  H        42.5165719129       18.7902754712        4.8619387110
  H        44.6517177688       18.8404570728        6.1598555986
  H        43.9932931164       17.3041159025        1.2592203515
  H        46.1997081224       26.6829552541        4.6233229113
  H        52.7412999737       21.0627145838        8.1946194110
  H        14.8625810393       19.6774881457        3.9045365324
  H        17.0572264300       19.7523037303        2.7090123725
  H        18.3120090951       16.2111320120        4.8019341975
  H        16.1198879445       16.1606373856        6.0080126342
  H        16.9194532286       17.7278469205        1.2637862545
  H        52.3227225437       21.6737715487        6.2946161657
  H        52.0139112070       21.7028874597        9.4955637723
  H        49.0675594420       18.6081235477        5.2041986968
  H        13.2471558931       19.0162963509        7.9760806632
  H        30.0101246331       12.5544267066       12.2918848083
  H        28.9846425427       10.5918303146       13.4495821957
  H        25.3925866682       11.1070883454       11.1401534627
  H        26.4366316382       13.0505488235        9.9734576937
  H        27.2425383433       11.6535108024       14.7892241265
  H        31.0034131080       22.7266457360       12.0212483423
  H        32.0046204725       24.5992652532       13.3299319656
  H        35.6711528269       24.1680748433       11.1215381484
  H        34.6504325054       22.3042630580        9.8061942831
  H        33.6844377430       23.5601494938       14.7535087249
  H        25.8638182546        8.5677908264       11.3688508542
  H        30.9223859847       22.6667590862        3.8745365696
  H        31.9435635576       24.5451666502        2.5915308258
  H        35.5516500279       24.1485579474        4.9008916551
  H        34.5086114625       22.2832619814        6.1928251149
  H        33.6530859098       23.5484019416        1.2008247226
  H        40.5960843224       17.0744062943        4.6531770138
  H        32.5251164267       14.1510948948        8.1458944049
  H        29.8515136664       12.4833891547        3.9739791774
  H        28.8373590791       10.5900876737        2.7052740222
  H        25.1243390678       11.1909057766        4.7909099286
  H        26.1570647003       13.0776721384        6.0662640184
  H        27.1706058657       11.6735680032        1.2335430094
  H        33.2927200407       14.2489127272        6.3598925822
  H        33.4090132762       14.3022512517        9.5503314977
  H        32.0336988690       18.4846976259        5.0770362391
  H        30.2085444228       14.1387569432        8.0876205781
  H        16.1177911814        2.9626673175       12.1288596936
  H        14.9519899868        4.8192690361       13.3216432642
  H        17.3648154348        7.6856774148       11.2101791474
  H        18.5142635366        5.8186090163       10.0104355017
  H        16.7517144693        5.7384463176       14.7712375193
  H        44.8277882662       32.1404739283       11.9771121772
  H        45.9372527123       30.3417369564       13.3066187099
  H        43.6829206842       27.3782399328       11.1523505841
  H        42.5999822205       29.1899924044        9.8097145604
  H        44.2303101876       29.4367154841       14.7689195676
  H        14.8498409947        8.5456036870       11.3631679857
  H        44.8994330828       32.2341898822        3.9315027058
  H        46.0244122019       30.4132599341        2.6519249631
  H        43.7642648587       27.4841026744        4.8458897159
  H        42.6463717245       29.3177157374        6.1249889685
  H        44.2683770265       29.4704202434        1.2182233792
  H        35.0403866738       26.6231074005        4.6301296662
  H        36.6052331649       35.1338860968        8.1807129637
  H        16.1430205101        3.0129207753        3.9051370635
  H        14.9733233800        4.8561805185        2.6894152275
  H        17.3973976682        7.7471212074        4.7537908021
  H        18.5443663070        5.8933072328        5.9816456702
  H        16.7634778322        5.7546714212        1.2189714346
  H        36.2791599371       34.4818867321        6.2732664821
  H        36.3807955209       34.2091822453        9.4999086435
  H        40.5796738014       33.2026862147        5.1539541284
  H        17.4714722621        1.9473430179        7.9741287604
  H        28.6659807643       18.9077331358       12.2619262265
  H        28.7622053874       18.8335253988        3.7348577063
  H        30.7810977736       15.3675346602        3.7564500759
  H        32.5018697454       16.3580163846       12.7027005700
  H        18.8532845842        0.8690133827       12.3350868816
  H        40.5282262157       35.2289636402        3.9521289234
  H        42.3235603017       34.4186487633        3.5906272567
  H        22.0872850584        0.6922244703       12.3518675995
  H        11.5967444862       18.7126133100       12.3824860389
  H        52.2652012891       18.4312691464        3.6780034873
  H        49.2550642779       16.4765320761        3.5841862130
  H        10.1502459813       15.7982483818       12.2923783086
  H        50.8503016078       17.6928305826        3.9539618579
  H        10.0460019705       17.3948927737       12.0518702659
  H        20.2143423917        0.0020227551       12.0420735521
  H        39.1834473709       36.1241578589        3.6862704787
 Ni        30.3984418955       17.4968047359        2.6661759665
 Ni        31.1985450581       16.1117428977       -1.2538470472
 Ni        30.1418890426       17.3038818670        0.2499832755
 Ni        30.5607321878       17.7031764587       12.9916389875
  O        10.6497986967       14.3652080393        5.4858003937
  O        12.6130109299       14.6574180896        6.5838718096
  O        49.1473924258       16.8459128444        7.9898098479
  O        50.3501106841       20.9360758331        5.6482243281
  O        48.3484476150       20.5932045950        6.6660032631
  O        11.0508471767       17.0540274998        6.5006479802
  O        50.3207554083       20.8816656748       10.4068769564
  O        48.3466259393       20.5866361612        9.3270818809
  O        49.5431557316       18.2483556166       10.0683619842
  O        12.3586782936       18.6246723028        7.9997498990
  O        48.6930963481       14.1486878548        6.7512571546
  O         8.2096415421       14.2107467039        9.3227388020
  O        10.7348759593       14.5067821720       10.6643179087
  O        12.5715687524       14.5827135586        9.3286688660
  O        22.8442570245        2.0423395488        5.4869342416
  O        21.6058228718        3.5927134799        6.5886567914
  O        42.0579689601       34.1373411910        7.9792607285
  O        37.9812938847       33.1351830788        5.5719016498
  O        39.2175791362       31.5750052314        6.6657019022
  O        20.3085683764        1.0403669949        6.5022116595
  O        38.0240259821       33.1844108232       10.4157141792
  O        39.2184409905       31.5830435269        9.3271324835
  O        40.6521707239       33.7692418256       10.0602367730
  O        18.2562305735        1.3762653390        7.9968366037
  O        44.6221278311       35.1006096237        6.7589010405
  O        24.2054384098       -0.0000960104        9.3207538582
  O        22.7537610356        2.0571860871       10.5836421123
  O        21.6269065822        3.5978403222        9.3453707486
  O        27.4530167494       18.6957814435        5.4909799519
  O        26.6893464681       16.9183076759        6.6707937571
  O        30.6334658188       19.3444908650        8.0075906312
  O        33.5427489047       16.3313558057        5.6572095650
  O        34.2655409747       18.1826695394        6.7454827040
  O        29.5306815803       17.0055210987        6.5809825955
  O        33.4470751638       16.3290677831       10.5865411395
  O        34.2247833739       18.1067012568        9.4058569088
  O        31.6358333164       18.3089353940       10.1674038020
  O        30.2927308544       15.1060024599        8.0686530132
  O        28.5519674874       21.0269044846        6.8269030569
  O        28.5089139109       20.9526440279        9.3972353454
  O        27.4546154928       18.6760409657       10.6590648469
  O        26.6894325449       16.9278020345        9.4179743949
  O        13.1465528824       18.6937163028       10.5862217151
  O        13.9176636544       16.9159034129        9.4038664009
  O        50.5955013442       19.3502256151        8.0208054113
  O        47.6791435701       16.3281247607       10.4184274187
  O        46.9491529589       18.1757976283        9.3262702132
  O        11.0686453550       17.0160062093        9.4895717802
  O        47.6739451712       16.3361931375        5.6520990393
  O        46.9245307098       18.2358804479        6.6629058800
  O        49.5685805047       18.3177685571        5.9823915644
  O        10.3184946611       15.1002652429        7.9971865437
  O        52.6707019758       21.0279852960        9.2418014595
  O        12.1467958905       20.8914166923        6.6733677141
  O        13.1045947322       18.6142541430        5.3263381062
  O        13.9550608239       16.9864201937        6.6655539239
  O        30.0343298929       14.5109105973       10.6688641896
  O        28.0895428582       14.6554870045        9.4970669996
  O        32.0672880803       16.8481733673        8.0583891689
  O        30.9599499600       20.9508916231       10.3360313218
  O        32.9579357665       20.5831827041        9.3246701268
  O        29.5661889999       17.0712346202        9.5754755170
  O        30.8539561595       20.8760795890        5.5875156559
  O        32.8541445260       20.5841087438        6.6545856435
  O        31.6105786150       18.2369335736        5.9169890536
  O        28.2553007313       18.6326983802        8.0684754069
  O        32.4922083662       14.2123285380        9.2388801291
  O        32.4012971261       14.2147360697        6.7463023558
  O        29.8357839601       14.4279154023        5.4882142714
  O        27.9588425346       14.5834396686        6.7524402244
  O        17.8892764672        1.9665929477       10.6627524925
  O        18.9564189609        3.5271841447        9.4080431022
  O        39.1684969766       34.1386078571        7.9972196147
  O        43.2801885361       33.0589336409       10.3317124567
  O        42.0344287582       31.5064339810        9.2416076204
  O        20.3175703659        1.0365561408        9.4800472889
  O        43.2760755399       33.1825615290        5.5749035098
  O        42.0052683555       31.5841123673        6.5830103235
  O        40.5790469828       33.7752334987        5.9361841133
  O        22.3673619724        1.3849696087        7.9982273454
  O        36.6728532122       35.0997168550        9.2333297199
  O        16.4457862864        0.0640699901        6.6681913464
  O        17.9364481477        2.0432537058        5.3265075120
  O        18.9192330395        3.5931090265        6.6660204750
  O        29.6597996457       18.6908960832        4.0850622948
  O        29.6163057273       19.0448558765       12.0724867194
  O        31.1737142451       16.2008376738        4.0746795494
  O        31.5599659331       16.1182389585       12.8352482569
  O        39.4567980710       35.2436932571        4.0020712736
  O        19.1411204982        0.0044414561       11.9905426544
  O        41.9693751635       35.1726313096        4.0872254403
  O        21.6913123116       -0.0693530561       11.8961012534
  O        51.3650917781       18.6144238861        4.0053217328
  O        10.7508853355       18.7471532781       11.9050752789
  O        50.0793251369       16.4127247240        4.0917617060
  O         9.5243113350       16.4831925451       11.9911628888
 Zr         9.2969089154       16.0529064493        6.1821557615
 Zr        49.8360195061       16.0072294522        9.7467626082
 Zr        22.0730698736        0.0298340748        6.1894860080
 Zr        42.4608238810       35.1537958101        9.8014562205
 Zr        29.5523651211       19.0349554421        6.2112295771
 Zr        29.5620760743       19.1917677580        9.8366414438
 Zr        11.0375849256       19.0524939861        9.8279238247
 Zr        11.0435765324       19.1552224484        6.2512750856
 Zr        31.3373995789       16.0856728803        9.7756097906
 Zr        31.3301631243       15.9898773625        6.1983147049
 Zr        18.6010895862       -0.0017573600        9.7634223101
 Zr        18.5066551454       -0.0078638014        6.2136765669
 Zr        12.3012474827       16.3232135776        7.9905798257
 Zr        48.6159079254       18.8329146316        8.0104975295
 Zr        20.3161587086        2.4742226547        7.9917112756
 Zr        40.6429111641       32.6867145973        7.9781932763
 Zr        28.3109307990       16.3242810643        8.0774531592
 Zr        32.5920040415       18.8420605720        8.0115381425
  H        30.6218491304       16.4113743932        1.4476369960
  H        29.9274861640       18.4240249876        1.5440606789
