     562
 i =      230, E =     -4678.9424136455
  C        11.8585360567       14.0534191848        5.7415726160
  C        12.4558637040       12.8903924491        5.0233367617
  C        11.7042196315       12.1716691177        4.0814590711
  C        12.2804772646       11.1093870667        3.3891307149
  C        13.6209684337       10.7392669811        3.6169673769
  C        14.3540768972       11.4426202739        4.5906671757
  C        13.7812883957       12.5076443657        5.2821955353
  C        14.2603916737        9.6485590939        2.8435006678
  C        14.2552010647        9.6562295904        1.4217818635
  C        13.7419215016       10.7582730084        0.6678383168
  C        49.1265199643       21.2332725385        5.8798603964
  C        48.5496671556       22.4010867739        5.1528191455
  C        49.2996488283       23.0682782835        4.1716710024
  C        48.7327100148       24.1073434540        3.4384014003
  C        47.4021976014       24.5090879378        3.6670690800
  C        46.6713170833       23.8603843163        4.6807666397
  C        47.2337670733       22.8155359756        5.4101962799
  C        46.7720141111       25.5867776273        2.8697583740
  C        46.7611765100       25.5572234219        1.4479906189
  C        47.2611775620       24.4421883667        0.7044530270
  C        14.8589057886        8.5697850399        0.7084530615
  C        14.8914602388        8.5967160206        3.5200848461
  C        49.1128695428       21.2034598274       10.1453233232
  C        48.5275634623       22.3648780726       10.8722426376
  C        49.2667721710       23.0253803666       11.8653459360
  C        48.6905147254       24.0598987174       12.5968788819
  C        47.3602243632       24.4570039882       12.3584494337
  C        46.6399016768       23.8124134911       11.3346417007
  C        47.2133716045       22.7765244244       10.6027700130
  C        46.7218176041       25.5318921702       13.1495934548
  C        46.7335075449       25.5281396772       14.5713034500
  C        47.2490220432       24.4289628594       15.3276862575
  C        40.5900845577       17.0414803546       15.2962931103
  C        40.5783026563       17.0359566013       12.4843713930
  C        11.8824281387       14.0863502214       10.2854704430
  C        12.4711952356       12.9102000271       10.9894648781
  C        11.7135969576       12.1775789864       11.9159992965
  C        12.2797709243       11.0948985682       12.5843867959
  C        13.6182884162       10.7202768321       12.3521504005
  C        14.3562261966       11.4350981322       11.3907353022
  C        13.7912158447       12.5164937818       10.7180680332
  C        14.2516587603        9.6234369741       13.1226184507
  C        14.2505785699        9.6435264265       14.5444707060
  C        13.7410033090       10.7525866758       15.2915798800
  C        22.5014291728        3.2427191391        5.7412766147
  C        23.1931449435        4.3437177455        5.0133591277
  C        24.1869610140        4.0579348347        4.0655641836
  C        24.8035774950        5.0921876672        3.3663771419
  C        24.4416009470        6.4346415547        3.5946157428
  C        23.4681800911        6.7118606483        4.5720740769
  C        22.8476179750        5.6794985176        5.2701194027
  C        25.0590973740        7.5384306391        2.8255378873
  C        25.0757718326        7.5269601531        1.4040827310
  C        24.3947017690        6.5271337052        0.6401708874
  C        38.3020189009       31.9264549423        5.8473333789
  C        37.5717274298       30.8360498506        5.1364444733
  C        36.6138994813       31.1396163196        4.1564003758
  C        35.9941585229       30.1198292709        3.4385277181
  C        36.3155163853       28.7690769061        3.6781296340
  C        37.2441345199       28.4731578807        4.6942437977
  C        37.8684257330       29.4917491912        5.4107201659
  C        35.7092312292       27.6769915029        2.8809853340
  C        35.7437435530       27.6885755602        1.4589476136
  C        36.4518889987       28.6885077148        0.7205755298
  C        25.7220899033        8.5939423866        0.6999353651
  C        25.6340053426        8.6163235272        3.5105094929
  C        38.3270020235       31.9599375014       10.1564073968
  C        37.6034921073       30.8845646048       10.8958703601
  C        36.6745236952       31.1898872614       11.9026492155
  C        36.0631034121       30.1694617070       12.6291922154
  C        36.3650431764       28.8164911881       12.3736823507
  C        37.2711011041       28.5212850452       11.3363074196
  C        37.8847231529       29.5382168236       10.6109447876
  C        35.7570194172       27.7154602102       13.1576806773
  C        35.7684635371       27.7079953515       14.5803125997
  C        36.4629773251       28.6983778837       15.3436453029
  C        46.1354823825       26.6207486228       15.2814712849
  C        46.0877756471       26.5802301891       12.4735824261
  C        22.4767762184        3.2557426491       10.2457645422
  C        23.2081928081        4.3602809063       10.9392556492
  C        24.2233774406        4.0640484026       11.8631528129
  C        24.8801596376        5.0878811122       12.5418421609
  C        24.5429261029        6.4381819160       12.3202418560
  C        23.5570183304        6.7276970317       11.3579855991
  C        22.8956294753        5.7039441234       10.6789268886
  C        25.1814535138        7.5276067549       13.1028843754
  C        25.1386465600        7.5207664920       14.5254627887
  C        24.4210059568        6.5267876887       15.2634450110
  C        26.5574981509       17.8310643249        5.7846519761
  C        25.2566838654       17.8970042061        5.0610305243
  C        25.0082115547       18.9113985803        4.1234345482
  C        23.8006394501       18.9464540859        3.4309617195
  C        22.8098570544       17.9700973805        3.6554762544
  C        23.0534786805       16.9791263890        4.6246970186
  C        24.2622159344       16.9393951418        5.3160192828
  C        21.5447414393       17.9683876405        2.8830632626
  C        21.5536723505       17.9648849327        1.4611129757
  C        22.7641606900       17.8555426892        0.7063254193
  C        34.4178276653       17.2167968070        5.9100873911
  C        35.7170186660       17.1461623991        5.1758749188
  C        35.9146585430       16.1738733222        4.1825789031
  C        37.0986086637       16.1448382008        3.4498003597
  C        38.1181998166       17.0891047393        3.6837967907
  C        37.9233898798       18.0404064492        4.7041507269
  C        36.7382874376       18.0728622614        5.4371278373
  C        39.3691255123       17.0912115887        2.8873360306
  C        39.3533136695       17.0863064736        1.4643145385
  C        38.1396308417       17.1982108788        0.7161597462
  C        20.3100277218       17.9843527714        0.7485205890
  C        20.3188827605       17.9589761656        3.5609349437
  C        34.3281100149       17.1752511683       10.2698852060
  C        35.6325428323       17.0658502041       10.9839401930
  C        35.8595531519       16.0898505038       11.9675636037
  C        37.0700153686       16.0552727340       12.6585102421
  C        38.0867990106       16.9948621165       12.3903800402
  C        37.8652674336       17.9402470471       11.3705274641
  C        36.6570392347       17.9791911348       10.6810616690
  C        39.3519387389       17.0180674062       13.1632323475
  C        39.3447745945       17.0483892277       14.5855025840
  C        38.1357144337       17.1780882145       15.3395837168
  C        35.1378988894       26.6290524816       15.2851548010
  C        35.1649927037       26.6445912688       12.4755254014
  C        26.5584897498       17.8217639040       10.3227595851
  C        25.2467401225       17.8765412751       11.0258187954
  C        24.9706667596       18.9148182010       11.9284369640
  C        23.7536779366       18.9500005514       12.6022157655
  C        22.7849912867       17.9491677664       12.3932444720
  C        23.0540908010       16.9352816213       11.4563471305
  C        24.2723484980       16.8965454698       10.7819157382
  C        21.5206953074       17.9447234665       13.1636861755
  C        21.5407513396       17.9531100161       14.5845291754
  C        22.7580317359       17.8510892738       15.3299095896
  C        14.0448724794       17.8327793012       10.2835957373
  C        15.3509108084       17.9000317811       11.0004200897
  C        15.6095071462       18.9193557387       11.9296280153
  C        16.8197103895       18.9498956253       12.6183811035
  C        17.8018725542       17.9635110359       12.3991696147
  C        17.5491141293       16.9692173228       11.4358759072
  C        16.3386037109       16.9346823840       10.7478519396
  C        19.0674561481       17.9538746708       13.1700632704
  C        19.0596312980       17.9619971099       14.5916203312
  C        17.8485590196       17.8660872269       15.3467157604
  C        46.7930842058       17.2118349319       10.1536381185
  C        45.4877079089       17.1279706611       10.8812226390
  C        45.2785287467       16.1401703507       11.8572051809
  C        44.0874117310       16.0992738718       12.5797415458
  C        43.0674201490       17.0453120241       12.3528867989
  C        43.2715287948       18.0091436757       11.3456964757
  C        44.4643205446       18.0542144728       10.6239528786
  C        41.8124147924       17.0424265995       13.1488205979
  C        41.8298808769       17.0558289099       14.5730209943
  C        43.0443289895       17.1674908604       15.3212515052
  C        20.3031614381       17.9775641102       15.3043736244
  C        20.2926963053       17.9250536950       12.4919229526
  C        46.7837090999       17.2346510096        5.8808436630
  C        45.4851472908       17.1332479618        5.1508111971
  C        45.2732673391       16.1379444148        4.1838991175
  C        44.0877513125       16.1069149814        3.4522013860
  C        43.0803858198       17.0680373655        3.6682522951
  C        43.2856861753       18.0372730200        4.6688736830
  C        44.4723299395       18.0744698437        5.3958841361
  C        41.8271595286       17.0757840908        2.8775047968
  C        41.8377479252       17.0717494767        1.4549375473
  C        43.0480110917       17.1718384223        0.6986071077
  C        46.1531385585       26.6370856090        0.7262340462
  C        46.1620018125       26.6558734127        3.5358862484
  C        14.0399573988       17.8304004261        5.7070514033
  C        15.3537805084       17.9058141230        5.0078038003
  C        15.6194214095       18.9328656270        4.0900654884
  C        16.8428677684       18.9776662442        3.4269869110
  C        17.8250304595       17.9942055017        3.6571829194
  C        17.5649622010       16.9929836663        4.6101304078
  C        16.3437732037       16.9481172245        5.2775170519
  C        19.0906755644       17.9831746053        2.8889818236
  C        19.0719082467       17.9760673558        1.4680030274
  C        17.8546532496       17.8722485817        0.7229235036
  C        28.8490827104       14.1214164777       10.3744824721
  C        28.2820931810       12.9358063234       11.0736751535
  C        29.0089118449       12.2295358430       12.0437108482
  C        28.4316374311       11.1354009265       12.6868107169
  C        27.1160422589       10.7249258407       12.3862081699
  C        26.4150963676       11.4139809403       11.3797621508
  C        26.9872671416       12.5054886380       10.7357958214
  C        26.4482185313        9.6339467954       13.1338958474
  C        26.3956118000        9.6616332072       14.5542056584
  C        26.8746769544       10.7768575979       15.3122948771
  C        32.1803567439       21.2328372930       10.1130326607
  C        32.7697624969       22.3933638362       10.8419638701
  C        32.0257467087       23.0527756026       11.8331163553
  C        32.5952532513       24.0892166699       12.5676921296
  C        33.9234369472       24.4965143329       12.3331291257
  C        34.6489000596       23.8539714645       11.3113506105
  C        34.0834862255       22.8117534000       10.5792817664
  C        34.5521760734       25.5725266471       13.1351612331
  C        34.5477550633       25.5434561232       14.5575214719
  C        34.0459327181       24.4264358723       15.2972487142
  C        25.7614160769        8.5858490786       15.2557373038
  C        25.8231949571        8.5848051849       12.4440214322
  C        32.0742731255       21.1960094944        5.8414782973
  C        32.6601109412       22.3589495117        5.1111780331
  C        31.9400978272       23.0035637975        4.0932405559
  C        32.5214981273       24.0426937939        3.3697247856
  C        33.8383198633       24.4656545880        3.6406793272
  C        34.5385057876       23.8356917664        4.6878201423
  C        33.9614847637       22.7940338165        5.4094409567
  C        34.4866444326       25.5447565535        2.8584421979
  C        34.5137588101       25.5298715023        1.4358173561
  C        34.0285581083       24.4204110928        0.6741562745
  C        40.5933190350       17.0551809983        0.7427885066
  C        40.6008434573       17.1012401439        3.5534981050
  C        28.6579490274       14.0606656755        5.7862530678
  C        28.0510775651       12.9076441508        5.0608914385
  C        28.8061817089       12.1904009308        4.1197144413
  C        28.2350188867       11.1319145734        3.4201674013
  C        26.8918806073       10.7645633301        3.6348231204
  C        26.1533302826       11.4655456710        4.6064945629
  C        26.7241539598       12.5245311213        5.3105676048
  C        26.2664360776        9.6753858105        2.8486510564
  C        26.3033173534        9.6834963174        1.4275084146
  C        26.8286875699       10.7883666200        0.6871294365
  C        18.1353440104        3.1808662920       10.3170672237
  C        17.4054132537        4.2779376700       11.0154064658
  C        16.3893964359        3.9991399171       11.9424778934
  C        15.7411934353        5.0388180206       12.6059988954
  C        16.0929016962        6.3826555025       12.3667291274
  C        17.0825513108        6.6526259617       11.4033701217
  C        17.7321547936        5.6155773667       10.7383091284
  C        15.4682065802        7.4901308746       13.1298695063
  C        15.4835975432        7.4895188074       14.5516010628
  C        16.1853442105        6.4960045379       15.3047196928
  C        42.9457635345       31.8595479815       10.0728484686
  C        43.6461364448       30.7718302594       10.8168395277
  C        44.5918264552       31.0931668729       11.8027378757
  C        45.1975459543       30.0876340980       12.5504188290
  C        44.8709067826       28.7346053314       12.3357332065
  C        43.9449068902       28.4202393710       11.3227003155
  C        43.3360692121       29.4253758975       10.5746595982
  C        45.4885356963       27.6552999862       13.1388894648
  C        45.4927341084       27.6808769641       14.5605829859
  C        44.8056448066       28.6889178787       15.3072099877
  C        14.8547404368        8.5620725874       15.2639973575
  C        14.8728068687        8.5618489932       12.4513252209
  C        42.9463925018       31.9615645005        5.8090075599
  C        43.6915247068       30.8853456341        5.0954448292
  C        44.6564943203       31.1911942517        4.1235143483
  C        45.2779464545       30.1715694193        3.4057613876
  C        44.9537223708       28.8213099951        3.6430527314
  C        44.0197659031       28.5236932140        4.6533908924
  C        43.3915708963       29.5404976250        5.3655856936
  C        45.5627510868       27.7238737135        2.8578196895
  C        45.5331700181       27.7172432570        1.4365228388
  C        44.8268709492       28.7075116956        0.6836028857
  C        35.1229972099       26.6206675626        0.7309267290
  C        35.0968321021       26.6051021386        3.5411639820
  C        18.1486998118        3.2468180781        5.7067188776
  C        17.4301265462        4.3436746455        4.9972260546
  C        16.4147314779        4.0523104479        4.0739010844
  C        15.7662916922        5.0828517901        3.3984696914
  C        16.1209763396        6.4281284118        3.6208936187
  C        17.1126163603        6.7116149891        4.5778609461
  C        17.7603727090        5.6827852626        5.2577128369
  C        15.4901494856        7.5237076903        2.8484721064
  C        15.4954812309        7.5068562008        1.4273136772
  C        16.1919675999        6.5050193195        0.6805376461
  H        10.6721576525       12.4659478541        3.9043154579
  H        11.6941480628       10.5510365767        2.6625258187
  H        15.3910144984       11.1677892654        4.7725889520
  H        14.3507714632       13.0705586411        6.0178594206
  H        13.3752048112       11.6305581633        1.2010843722
  H        50.3223323407       22.7482008523        3.9868761548
  H        49.3191781471       24.6225276555        2.6807554151
  H        45.6418879539       24.1613143287        4.8640395607
  H        46.6627919656       22.2904744672        6.1724435317
  H        47.6297702903       23.5758000121        1.2460794424
  H        14.8722126714        8.5881105771        4.6084008845
  H        50.2867015912       22.7022868126       12.0604443157
  H        49.2688973545       24.5751677131       13.3605139520
  H        45.6106386137       24.1100033087       11.1453525001
  H        46.6525335103       22.2546042393        9.8310532164
  H        47.6078879186       23.5518780544       14.7967960552
  H        40.5732125880       16.9942922607       11.3966159569
  H        48.6868413854       14.0953264025        7.7999477066
  H        10.6803770687       12.4672958985       12.0937824374
  H        11.6878984555       10.5249861973       13.2974002095
  H        15.3913983143       11.1565153777       11.2043864099
  H        14.3636642288       13.0852726864        9.9891623803
  H        13.3742079945       11.6212319062       14.7529778912
  H        47.9300014441       14.2189330771        9.7113440785
  H        47.7797557703       14.3733460084        6.4951549942
  H        49.0801966524       18.5509972553       10.8664379516
  H        10.4156742918       14.1344775215        7.9991295655
  H        24.4571582710        3.0189309720        3.8907392718
  H        25.5793641840        4.8704070407        2.6367593676
  H        23.1790596132        7.7451955829        4.7521077116
  H        22.0776148149        5.8840499145        6.0100045671
  H        23.8174709340        5.7717644686        1.1656124573
  H        36.3792186301       32.1829640818        3.9589962102
  H        35.2514653324       30.3612391020        2.6812477113
  H        37.5014158203       27.4338165309        4.8878873316
  H        38.6102951706       29.2684939908        6.1738833531
  H        37.0175088886       29.4383876405        1.2659824336
  H        25.6367404525        8.6024002495        4.5988850962
  H        36.4521330661       32.2334581040       12.1138880614
  H        35.3379254199       30.4137857087       13.4022991714
  H        37.5173010227       27.4816513870       11.1305233715
  H        38.6064964159       29.3131415481        9.8295242087
  H        37.0380267184       29.4554645451       14.8183046208
  H        46.1091615752       26.5877207580       11.3855469644
  H        44.6681307107       35.1160634011        7.8143113521
  H        24.4850036300        3.0222817722       12.0342313149
  H        25.6660032972        4.8499041911       13.2556341832
  H        23.2859574977        7.7656135773       11.1754879142
  H        22.1163440649        5.9261649386        9.9534909049
  H        23.8633878215        5.7715855907       14.7173731141
  H        44.9531862769       34.3895729435        9.6945601033
  H        44.9016846570       34.2069220040        6.4906606252
  H        40.6650037357       33.2084208053       10.8528707584
  H        23.1506276869        1.9577900316        7.9999711466
  H        25.7710983337       19.6674567833        3.9530036169
  H        23.6094679350       19.7377138519        2.7093016983
  H        22.2970458745       16.2178165156        4.8037863233
  H        24.4651084830       16.1616348990        6.0484580373
  H        23.7041088057       17.7414035123        1.2385852935
  H        35.1207936706       15.4561191859        3.9889254028
  H        37.2465755088       15.3823910485        2.6881631394
  H        38.6991699346       18.7799180661        4.8918868792
  H        36.5748713308       18.8253709202        6.2051531813
  H        37.2049069683       17.3344010100        1.2526814215
  H        20.3213194743       17.9838798152        4.6491769942
  H        35.0800660220       15.3623011758       12.1847017667
  H        37.2396799434       15.2934750569       13.4163073166
  H        38.6391986959       18.6733950619       11.1527615172
  H        36.4732967805       18.7275362701        9.9139776832
  H        37.1969815675       17.2992270319       14.8070502606
  H        35.1345568016       26.6721470384       11.3878898776
  H        28.5034098582       21.0829531121        7.8744190474
  H        25.7199575326       19.6877962639       12.0830847961
  H        23.5381664821       19.7566954506       13.2995449176
  H        22.3121460066       16.1566752840       11.2916944669
  H        24.4980969636       16.1028288197       10.0737715836
  H        23.6932472022       17.7346319234       14.7901012842
  H        28.9838567530       21.7217568190        9.7550423349
  H        29.1975925987       21.7022269506        6.5461445396
  H        32.1312401186       18.5984320670       10.9318575169
  H        27.3659806011       19.0309296835        8.0717935967
  H        14.8513504541       19.6811226873       12.0966022584
  H        17.0192968368       19.7445524121       13.3340509929
  H        18.2994525163       16.2012317058       11.2595912089
  H        16.1285526126       16.1547829645       10.0198334006
  H        16.9083894821       17.7527137443       14.8149816828
  H        46.0683390314       15.4168713491       12.0466293636
  H        43.9352551645       15.3256399618       13.3293334800
  H        42.4965810506       18.7499654634       11.1593007970
  H        44.6314534535       18.8168599299        9.8665997930
  H        43.9809029127       17.2812477193       14.7829516448
  H        20.2906749963       17.9400736214       11.4035139085
  H        46.0525697569       15.3996156409        4.0089560868
  H        43.9285767545       15.3304101317        2.7071145608
  H        42.5163525133       18.7866536141        4.8433290365
  H        44.6470039231       18.8412717365        6.1467713613
  H        43.9877927164       17.2881436655        1.2308963384
  H        46.1987359627       26.6824191679        4.6233347895
  H        52.7412221434       21.0627277377        8.1945762865
  H        14.8577762757       19.6894561426        3.9153392710
  H        17.0516414989       19.7773401478        2.7195993876
  H        18.3166404248       16.2276322752        4.7918810376
  H        16.1255918209       16.1647644339        5.9992998887
  H        16.9190361084       17.7635296535        1.2632438745
  H        52.3225525425       21.6737640641        6.2947775586
  H        52.0140182886       21.7030375186        9.4955240864
  H        49.0675950420       18.6082741765        5.2041879321
  H        13.2469084752       19.0166872089        7.9760690188
  H        30.0188761678       12.5547802530       12.2847388727
  H        28.9966836477       10.5880085032       13.4381479415
  H        25.3987708978       11.1092685330       11.1390913490
  H        26.4398362116       13.0560619710        9.9752993037
  H        27.2519437977       11.6468618075       14.7833110055
  H        31.0061400528       22.7266365578       12.0250178564
  H        32.0120059235       24.5979346538       13.3320913203
  H        35.6767255205       24.1572347286       11.1228410197
  H        34.6516864553       22.2936796306        9.8102180238
  H        33.6982955317       23.5525824983       14.7535887625
  H        25.8772204026        8.5674224211       11.3568503519
  H        30.9301426127       22.6660701050        3.8715192816
  H        31.9549425831       24.5415402450        2.5865000521
  H        35.5575929969       24.1489418283        4.9050374722
  H        34.5111122188       22.2866531970        6.1986099707
  H        33.6677276080       23.5416681659        1.2011920831
  H        40.6051658015       17.0765008600        4.6415989877
  H        32.5249611893       14.1516687426        8.1296313834
  H        29.8429909694       12.4735032501        3.9550174625
  H        28.8272749142       10.5728695636        2.6990745833
  H        25.1140592077       11.1930163653        4.7784988065
  H        26.1506137589       13.0830161993        6.0466543451
  H        27.1696038006       11.6667414936        1.2274355860
  H        33.2904685992       14.2482582734        6.3540347645
  H        33.4043062794       14.2946206181        9.5458729455
  H        32.0210616481       18.5054265552        5.0665805344
  H        30.2101134823       14.1349490638        8.0272903407
  H        16.1175368588        2.9625283986       12.1285812736
  H        14.9515670058        4.8190649848       13.3213528431
  H        17.3649302866        7.6855901710       11.2106574022
  H        18.5145512333        5.8185797637       10.0109408681
  H        16.7517312157        5.7385876730       14.7711450982
  H        44.8282103884       32.1402518209       11.9767719599
  H        45.9375199393       30.3413881327       13.3062580471
  H        43.6819977620       27.3781902129       11.1527962429
  H        42.5992536937       29.1900737387        9.8101726109
  H        44.2303328330       29.4367103240       14.7688911147
  H        14.8490521644        8.5450543930       11.3631045988
  H        44.9003517735       32.2338545600        3.9323446706
  H        46.0251335191       30.4127408743        2.6527828536
  H        43.7623521200       27.4840083081        4.8445885221
  H        42.6446664329       29.3177958375        6.1236628355
  H        44.2683990485       29.4703987055        1.2182289417
  H        35.0483977649       26.6219085836        4.6283755715
  H        36.6052269343       35.1337933237        8.1807306490
  H        16.1436056323        3.0127077002        3.9043917942
  H        14.9737784125        4.8558536580        2.6886424801
  H        17.3961907955        7.7470996574        4.7545493520
  H        18.5432928459        5.8933630384        5.9823975504
  H        16.7636059133        5.7548767440        1.2188962645
  H        36.2790596706       34.4818853808        6.2732650806
  H        36.3807552989       34.2091754614        9.4999882339
  H        40.5798081605       33.2026347502        5.1539478492
  H        17.4712530736        1.9472207791        7.9740799665
  H        28.6730482638       18.7802321396       12.2208904519
  H        28.8034048246       18.9155261000        3.7193181085
  H        30.7602023973       15.4252171247        3.6759249337
  H        32.6245960225       16.3464253679       12.8408798021
  H        18.8532933045        0.8690440547       12.3350007322
  H        40.5284396665       35.2289098445        3.9521185474
  H        42.3233897128       34.4183197769        3.5906040465
  H        22.0872313062        0.6921844206       12.3520161649
  H        11.5967640765       18.7124296683       12.3823635770
  H        52.2648710499       18.4313877795        3.6779488096
  H        49.2550608061       16.4764812516        3.5842328124
  H        10.1502894067       15.7983737377       12.2923571436
  H        50.8500758082       17.6927260064        3.9539497664
  H        10.0459011029       17.3950727757       12.0518899564
  H        20.2143110689        0.0020176794       12.0420826275
  H        39.1837193030       36.1243200907        3.6863453738
 Ni        30.3939200928       17.5560482179        2.5849236753
 Ni        31.4186391904       16.7106085411       -1.0839497703
 Ni        29.9257719942       17.5239696352        0.2517844514
 Ni        30.6028174886       17.5334278748       12.8239540836
  O        10.6497373747       14.3652823037        5.4858427089
  O        12.6130229495       14.6574659818        6.5838657322
  O        49.1471614822       16.8459748492        7.9899424582
  O        50.3500341499       20.9361191192        5.6482865342
  O        48.3484266770       20.5930584341        6.6660891570
  O        11.0507089428       17.0540035354        6.5007180007
  O        50.3206116405       20.8816523449       10.4068725180
  O        48.3465257639       20.5865492404        9.3270399477
  O        49.5429083799       18.2483128665       10.0683873245
  O        12.3586152260       18.6246391936        7.9996899739
  O        48.6930710926       14.1487460807        6.7512722922
  O         8.2096288534       14.2108207869        9.3227568193
  O        10.7348074144       14.5068435922       10.6642902458
  O        12.5715369933       14.5827493672        9.3286428977
  O        22.8440295155        2.0418367335        5.4869338895
  O        21.6056289094        3.5925149352        6.5885174587
  O        42.0579687131       34.1373401898        7.9793172980
  O        37.9813356835       33.1350689053        5.5718715932
  O        39.2177469820       31.5751073715        6.6658936849
  O        20.3084962310        1.0401950689        6.5020960260
  O        38.0238826604       33.1840638060       10.4158113364
  O        39.2185898205       31.5831241072        9.3269128292
  O        40.6521527222       33.7691928840       10.0602950967
  O        18.2560866131        1.3762519845        7.9968173761
  O        44.6221578071       35.1006159688        6.7589466997
  O        24.2054800295       -0.0000940986        9.3207788328
  O        22.7536398347        2.0569910815       10.5831658977
  O        21.6265085034        3.5972680689        9.3440521385
  O        27.4556354226       18.6959602840        5.4879236121
  O        26.6884268910       16.9192297235        6.6668895127
  O        30.6338372405       19.3446869322        8.0011174028
  O        33.5404452013       16.3314408301        5.6496114533
  O        34.2670694363       18.1803225909        6.7423340355
  O        29.5316907709       17.0098197816        6.5725431076
  O        33.3873457840       16.3378618562       10.5855202071
  O        34.2207636292       18.0990736132        9.4077927604
  O        31.6339174216       18.3073427910       10.1478181135
  O        30.2902159523       15.1026511155        8.0041718561
  O        28.5520109511       21.0274823700        6.8268896783
  O        28.5082096873       20.9539081334        9.3957273287
  O        27.4498636146       18.6761428175       10.6545288025
  O        26.6886021258       16.9259601592        9.4152558011
  O        13.1457315700       18.6940578139       10.5859742448
  O        13.9178237492       16.9161216845        9.4042253185
  O        50.5951021282       19.3501212922        8.0208555985
  O        47.6781165464       16.3281860233       10.4186091717
  O        46.9468138216       18.1753147502        9.3274599935
  O        11.0684426893       17.0160513995        9.4894790751
  O        47.6737016438       16.3363517970        5.6517452054
  O        46.9232146180       18.2356723624        6.6619238614
  O        49.5683355360       18.3177141305        5.9824860103
  O        10.3185161568       15.1003553419        7.9972090104
  O        52.6706754252       21.0279935638        9.2417955197
  O        12.1467474551       20.8914124328        6.6734139063
  O        13.1037656215       18.6145395490        5.3264441311
  O        13.9557373162       16.9869354706        6.6649516792
  O        30.0387449860       14.5155728261       10.6631378712
  O        28.0917203235       14.6557345365        9.4930754945
  O        32.0650531090       16.8486880889        8.0021937791
  O        30.9585720914       20.9487239843       10.3374194401
  O        32.9571833176       20.5829871036        9.3241667924
  O        29.5602060427       17.0650956234        9.5551110580
  O        30.8576026739       20.8800504524        5.5894635093
  O        32.8570070501       20.5848279323        6.6549810133
  O        31.6111528122       18.2408379860        5.9080582688
  O        28.2523749575       18.6340610073        8.0633799454
  O        32.4899450710       14.2111521063        9.2269890051
  O        32.3978713962       14.2184849073        6.7380006113
  O        29.8249132375       14.4360711921        5.4172641935
  O        27.9679388558       14.5791745271        6.7363480850
  O        17.8892556869        1.9665560897       10.6627631916
  O        18.9563585922        3.5271835211        9.4080724043
  O        39.1684751369       34.1386248780        7.9972034295
  O        43.2801950686       33.0589068630       10.3317227817
  O        42.0344306687       31.5064400830        9.2416088627
  O        20.3174314550        1.0363697366        9.4800114524
  O        43.2761408199       33.1824857160        5.5749292676
  O        42.0052508319       31.5841076982        6.5830218278
  O        40.5790248806       33.7751194191        5.9362245304
  O        22.3673034399        1.3847974870        7.9981566854
  O        36.6728561223       35.0996815124        9.2333468036
  O        16.4457520428        0.0640403420        6.6681702085
  O        17.9364133195        2.0432347515        5.3264817425
  O        18.9191238875        3.5931223168        6.6659927983
  O        29.6960189343       18.7554564553        4.0754538452
  O        29.6190203782       18.8981119709       12.0031894128
  O        31.1335938367       16.2662310400        3.9975500244
  O        31.7285079587       16.1056497387       13.1573092281
  O        39.4569208084       35.2437864807        4.0020713243
  O        19.1410910895        0.0044220178       11.9905496210
  O        41.9692826657       35.1723544772        4.0871805530
  O        21.6913227589       -0.0693530131       11.8961316440
  O        51.3647406149       18.6143977685        4.0052784913
  O        10.7508312154       18.7471343055       11.9050932617
  O        50.0793194993       16.4127342013        4.0918280608
  O         9.5242678766       16.4832397203       11.9911276258
 Zr         9.2967392861       16.0529132960        6.1821836973
 Zr        49.8359289245       16.0073675837        9.7469670434
 Zr        22.0731045287        0.0296319682        6.1895807243
 Zr        42.4607984194       35.1537814386        9.8014781982
 Zr        29.5549160532       19.0407606826        6.2057281186
 Zr        29.5573771940       19.1864519130        9.8237407069
 Zr        11.0372167099       19.0526291677        9.8279309698
 Zr        11.0432687563       19.1552218656        6.2513089973
 Zr        31.3302026050       16.0890512414        9.7215997459
 Zr        31.3221577615       15.9972193579        6.1480676520
 Zr        18.6010323445       -0.0018895080        9.7634521958
 Zr        18.5066041479       -0.0079799577        6.2136115940
 Zr        12.3013404209       16.3232918008        7.9904971037
 Zr        48.6151973280       18.8327148444        8.0107962706
 Zr        20.3158547848        2.4739393677        7.9915355730
 Zr        40.6428857641       32.6867258590        7.9782714966
 Zr        28.3067736427       16.3210874290        8.0647799975
 Zr        32.5918830745       18.8453341987        8.0041645653
  H        30.8731092185       16.7236657675        1.2424938476
  H        29.9146715123       18.5856725903        1.5266715323
