     566
 i =      379, E =     -4712.3062761615
  C        11.8585410077       14.0535141775        5.7415865578
  C        12.4559868041       12.8904674882        5.0232614419
  C        11.7043929892       12.1719067444        4.0812627324
  C        12.2806874527       11.1096673634        3.3888787732
  C        13.6210989223       10.7394802381        3.6169160575
  C        14.3541329323       11.4426342930        4.5907921510
  C        13.7813056321       12.5076193303        5.2823412946
  C        14.2605811771        9.6487871204        2.8435261564
  C        14.2559251673        9.6566892675        1.4218180572
  C        13.7428746301       10.7588403363        0.6678694498
  C        49.1264951637       21.2334039597        5.8798090903
  C        48.5496001182       22.4011671902        5.1526637000
  C        49.2997099723       23.0686490360        4.1718259233
  C        48.7327347535       24.1077086813        3.4385762189
  C        47.4020848503       24.5091060858        3.6669949529
  C        46.6710094519       23.8600226833        4.6802819861
  C        47.2335029990       22.8151771724        5.4096905266
  C        46.7719055230       25.5868184088        2.8697044363
  C        46.7610795237       25.5572898110        1.4479433592
  C        47.2610396843       24.4422003403        0.7044662172
  C        14.8597487171        8.5702750340        0.7085653611
  C        14.8912489168        8.5967646575        3.5201744599
  C        49.1129104262       21.2034448310       10.1453564029
  C        48.5274837568       22.3647305783       10.8724881686
  C        49.2667644091       23.0256109297       11.8652603236
  C        48.6903900456       24.0601304828       12.5967108719
  C        47.3598885295       24.4566951982       12.3586075055
  C        46.6393819840       23.8115661921       11.3352957354
  C        47.2129809830       22.7756853949       10.6035115945
  C        46.7214570839       25.5316699786       13.1496241407
  C        46.7333268189       25.5281044045       14.5713227848
  C        47.2487840210       24.4289032193       15.3277060022
  C        40.6175057144       17.0841126173       15.3091176342
  C        40.6273119111       17.1075699343       12.4989377557
  C        11.8827109219       14.0864054979       10.2854243522
  C        12.4717816795       12.9103118151       10.9895020435
  C        11.7142836208       12.1775517376       11.9159623115
  C        12.2806592673       11.0949936939       12.5844074728
  C        13.6192576693       10.7207056697       12.3522304784
  C        14.3571307912       11.4357136320       11.3909296876
  C        13.7919090503       12.5169855340       10.7182302605
  C        14.2528119457        9.6239847577       13.1227162152
  C        14.2518027967        9.6441280908       14.5445614500
  C        13.7421852094       10.7532101441       15.2916117580
  C        22.5077813304        3.2427479816        5.7518210323
  C        23.2152594919        4.3479851592        5.0468105221
  C        24.2098867849        4.0681333432        4.0985210088
  C        24.8310660928        5.1081105476        3.4124901107
  C        24.4719964085        6.4485495754        3.6554104736
  C        23.5045162130        6.7200628369        4.6396246192
  C        22.8790198750        5.6819344286        5.3242260855
  C        25.0754533812        7.5550982289        2.8801546503
  C        25.0542527952        7.5469712182        1.4589504322
  C        24.3554975506        6.5470334039        0.7106305504
  C        38.2977790792       31.9280649495        5.8518737730
  C        37.5555573870       30.8404736475        5.1505074375
  C        36.5896693144       31.1493098760        4.1800617667
  C        35.9577207983       30.1328293646        3.4690166341
  C        36.2761689664       28.7808706811        3.7046231731
  C        37.2115638254       28.4794981560        4.7127280288
  C        37.8474331088       29.4949742326        5.4234542280
  C        35.6634720823       27.6941039827        2.9057734937
  C        35.7008914292       27.7096144094        1.4839656315
  C        36.4139131021       28.7096964696        0.7501913412
  C        25.6810705304        8.6161255905        0.7416623192
  C        25.6680064977        8.6305508364        3.5533252658
  C        38.3297251734       31.9598892971       10.1605744302
  C        37.6122409905       30.8869931774       10.9095536426
  C        36.6779528354       31.1967633507       11.9102649040
  C        36.0667265711       30.1802354247       12.6424921619
  C        36.3742762599       28.8261418188       12.3995169139
  C        37.2894693202       28.5263364519       11.3713704505
  C        37.9023742725       29.5394040781       10.6399050748
  C        35.7579383998       27.7285310860       13.1821333338
  C        35.7491362815       27.7271996995       14.6049808169
  C        36.4353812959       28.7192596610       15.3735510109
  C        46.1353443450       26.6207576535       15.2814461655
  C        46.0873751303       26.5799365118       12.4735604176
  C        22.4605724625        3.2544506159       10.2551637751
  C        23.1559164804        4.3633807962       10.9748321800
  C        24.1624085281        4.0776119634       11.9106425342
  C        24.7910401239        5.1084755982       12.6042750380
  C        24.4320809579        6.4530458733       12.3839559387
  C        23.4490936803        6.7323453692       11.4161627839
  C        22.8160868141        5.7016909523       10.7227480400
  C        25.0609512354        7.5504216316       13.1590513937
  C        25.0478279520        7.5437148224       14.5812151242
  C        24.3502548079        6.5467916854       15.3339388405
  C        26.5663190956       17.8255468606        5.7847481227
  C        25.2644578054       17.8844972344        5.0577887241
  C        25.0120676533       18.8899158606        4.1120334718
  C        23.8030072276       18.9170103160        3.4210957795
  C        22.8135307216       17.9415358124        3.6558812199
  C        23.0608277132       16.9597591330        4.6331727478
  C        24.2713459226       16.9280493277        5.3219844619
  C        21.5470572589       17.9321725653        2.8854455943
  C        21.5555312683       17.9198482214        1.4637694605
  C        22.7655116349       17.7999614375        0.7097982120
  C        34.4113008312       17.2192824716        5.8787831557
  C        35.7128871193       17.1549941711        5.1516062885
  C        35.9167885039       16.1853727534        4.1573898081
  C        37.1040388803       16.1605520571        3.4314139135
  C        38.1189472674       17.1063440303        3.6760041894
  C        37.9188473167       18.0540682955        4.6980226450
  C        36.7301822606       18.0821678597        5.4243249815
  C        39.3733157235       17.1102663486        2.8886990904
  C        39.3658003530       17.1158485705        1.4662634627
  C        38.1572592429       17.2366908858        0.7104083259
  C        20.3126246497       17.9428090646        0.7503112669
  C        20.3208930776       17.9290774197        3.5630099606
  C        34.4350318890       17.2404948911       10.1825261979
  C        35.7343035902       17.1444090348       10.9104481070
  C        35.9441353601       16.1598028070       11.8875236917
  C        37.1346559914       16.1290066369       12.6100035819
  C        38.1461440712       17.0810496803       12.3752003721
  C        37.9425538756       18.0394155786       11.3645817006
  C        36.7509911696       18.0755697259       10.6459435487
  C        39.3972301178       17.0933852148       13.1669804190
  C        39.3782370319       17.1063572485       14.5886280611
  C        38.1631195231       17.2296477367       15.3335657338
  C        35.1080221889       26.6516647304       15.3061179176
  C        35.1761042573       26.6541180655       12.4962337374
  C        26.5731085632       17.8284857857       10.3279731125
  C        25.2583250364       17.8792524545       11.0330867104
  C        24.9921800508       18.8930267906       11.9657886010
  C        23.7737728678       18.9229903283       12.6383693467
  C        22.7925252321       17.9406495916       12.3984743014
  C        23.0525987355       16.9522747163       11.4323799962
  C        24.2722634244       16.9191628025       10.7598015745
  C        21.5265122093       17.9272405334       13.1661938405
  C        21.5444300155       17.9166779723       14.5871370426
  C        22.7597662126       17.7985664717       15.3335031295
  C        14.0458774580       17.8320164717       10.2841667155
  C        15.3528791847       17.8970163763       11.0013767509
  C        15.6117613304       18.9105533131       11.9368768917
  C        16.8225220284       18.9376865510       12.6254506774
  C        17.8059662010       17.9539540291       12.3994988906
  C        17.5530140045       16.9659264718       11.4297511643
  C        16.3417764716       16.9344647855       10.7425095078
  C        19.0720772006       17.9384314165       13.1707677973
  C        19.0633157087       17.9331196575       14.5925422923
  C        17.8519426998       17.8346453778       15.3469839248
  C        46.8015944960       17.2162675022       10.1570406776
  C        45.5077003030       17.1462216642       10.8969973508
  C        45.3008863864       16.1613368269       11.8755807771
  C        44.1164411371       16.1336605764       12.6073377750
  C        43.1071431038       17.0907932509       12.3840213065
  C        43.3105653652       18.0543720774       11.3773882869
  C        44.4958301371       18.0858181196       10.6461338754
  C        41.8537030858       17.0953889002       13.1743318682
  C        41.8625982301       17.0953981329       14.5968356726
  C        43.0730934655       17.1909532292       15.3531865972
  C        20.3064752079       17.9405526622       15.3061178390
  C        20.2982673673       17.9178328126       12.4935547499
  C        46.7838257385       17.2321636746        5.8864230313
  C        45.4820712554       17.1265631464        5.1668514601
  C        45.2646149447       16.1256635573        4.2074552035
  C        44.0772869337       16.0956996772        3.4797519614
  C        43.0765351665       17.0638436112        3.6930002227
  C        43.2852275155       18.0357914197        4.6896404965
  C        44.4734708951       18.0718135799        5.4129765242
  C        41.8285445390       17.0807803700        2.8971710729
  C        41.8498561090       17.0868416340        1.4755796759
  C        43.0670872386       17.1840868735        0.7302867845
  C        46.1531140615       26.6371936148        0.7261957544
  C        46.1618799367       26.6558793628        3.5358425007
  C        14.0397311146       17.8283804641        5.7064679370
  C        15.3538679992       17.8974768664        5.0064379088
  C        15.6238120306       18.9191951221        4.0842045907
  C        16.8480029353       18.9562260290        3.4217304806
  C        17.8265692194       17.9704555119        3.6574895298
  C        17.5622820359       16.9747527039        4.6149084091
  C        16.3402981422       16.9374431143        5.2811866727
  C        19.0928495341       17.9513692211        2.8903069381
  C        19.0743493203       17.9387202214        1.4692996361
  C        17.8573728658       17.8369886696        0.7232884118
  C        28.8116180016       14.0895375083       10.3936164059
  C        28.1978387919       12.9157787476       11.0797386520
  C        28.9264283262       12.1604153989       12.0103689354
  C        28.3256986616       11.0860044806       12.6617103466
  C        26.9837097232       10.7419035625       12.4027567855
  C        26.2767126453       11.4764278464       11.4344414740
  C        26.8744486410       12.5524516402       10.7837652325
  C        26.3138326031        9.6611293208       13.1611145254
  C        26.2980447779        9.6868384975       14.5815092503
  C        26.8026954983       10.7984105782       15.3281865952
  C        32.1812749939       21.2341719725       10.1426928441
  C        32.7779053201       22.3962677567       10.8684540010
  C        32.0221540164       23.0857477407       11.8295681931
  C        32.5889542974       24.1268698489       12.5587136858
  C        33.9284460729       24.5086114750       12.3491656022
  C        34.6679152949       23.8370846135       11.3570570062
  C        34.1030332976       22.7905100907       10.6293625318
  C        34.5505984724       25.5876681770       13.1522267167
  C        34.5227655661       25.5664173575       14.5744343307
  C        34.0013245377       24.4561821644       15.3111706201
  C        25.6829578998        8.6105574973       15.2976052064
  C        25.6783564288        8.6121771060       12.4848137535
  C        32.0695778532       21.2016233170        5.8774208487
  C        32.6387449675       22.3697887288        5.1408282275
  C        31.9026199273       23.0202260107        4.1385336378
  C        32.4734891718       24.0609970460        3.4078254706
  C        33.7950011833       24.4813687829        3.6585956256
  C        34.5117035312       23.8453800256        4.6908421789
  C        33.9459156794       22.8013043001        5.4174975286
  C        34.4355057782       25.5655631666        2.8760610687
  C        34.4624208450       25.5557236193        1.4533819771
  C        33.9710062019       24.4516023735        0.6879150752
  C        40.6106751136       17.0844199596        0.7544805389
  C        40.5988481916       17.1094993596        3.5649457536
  C        28.7315075562       14.0628624255        5.7867779473
  C        28.1144621670       12.9174066966        5.0578263304
  C        28.8526873411       12.1997383168        4.1041241446
  C        28.2662201098       11.1442164236        3.4116962527
  C        26.9262788373       10.7796131057        3.6496052398
  C        26.2051122975       11.4819135073        4.6328189620
  C        26.7899393613       12.5390461509        5.3269506541
  C        26.2831595998        9.6911149726        2.8773677264
  C        26.2825639225        9.7031948887        1.4561045759
  C        26.7925181410       10.8079312437        0.7040418765
  C        18.1351671784        3.1807146135       10.3171913379
  C        17.4055926094        4.2778729714       11.0157477545
  C        16.3901581859        3.9993068440       11.9435043706
  C        15.7422001190        5.0391655480       12.6069748303
  C        16.0936074727        6.3829661741       12.3670362679
  C        17.0826470978        6.6526800319       11.4029696312
  C        17.7319563645        5.6154613533       10.7379442380
  C        15.4692123946        7.4906132719       13.1300761637
  C        15.4847062190        7.4900710360       14.5517871791
  C        16.1863456976        6.4965258405       15.3049708066
  C        42.9457179020       31.8593649029       10.0728425581
  C        43.6459920682       30.7717073357       10.8167633572
  C        44.5916460844       31.0929828450       11.8027384005
  C        45.1972742132       30.0874126835       12.5504057544
  C        44.8706694355       28.7343725188       12.3356410889
  C        43.9446828603       28.4200747677       11.3225653162
  C        43.3359424333       29.4252444138       10.5745067201
  C        45.4882606603       27.6551003040       13.1388420514
  C        45.4925819011       27.6808480945       14.5605283104
  C        44.8055040492       28.6889087330       15.3071402711
  C        14.8558463900        8.5626429999       15.2641281704
  C        14.8738040812        8.5622962496       12.4514683485
  C        42.9463617986       31.9613876166        5.8090192679
  C        43.6914725816       30.8852896871        5.0955120880
  C        44.6562481307       31.1911885269        4.1233715326
  C        45.2776824777       30.1715950363        3.4056042539
  C        44.9536438868       28.8212967639        3.6430345871
  C        44.0198969862       28.5236333326        4.6535661361
  C        43.3917106103       29.5404054219        5.3657962474
  C        45.5626972681       27.7239253991        2.8577770725
  C        45.5331275348       27.7173367062        1.4364824526
  C        44.8268052889       28.7075668042        0.6835330555
  C        35.0801560325       26.6445813391        0.7518860526
  C        35.0482955155       26.6219957237        3.5624577819
  C        18.1483258351        3.2467771852        5.7065958851
  C        17.4296080547        4.3435825137        4.9972833778
  C        16.4145453119        4.0522515286        4.0735834242
  C        15.7661396473        5.0828501361        3.3982130021
  C        16.1205649353        6.4281260520        3.6210628732
  C        17.1117486740        6.7115603689        4.5785102324
  C        17.7594872842        5.6826862185        5.2582660015
  C        15.4900628501        7.5238098730        2.8486048287
  C        15.4959654313        7.5071757022        1.4274681535
  C        16.1926773620        6.5054311928        0.6807826134
  H        10.6723861431       12.4663491329        3.9040195210
  H        11.6944268669       10.5514419825        2.6621187500
  H        15.3910083053       11.1676587056        4.7728377725
  H        14.3505992946       13.0704786479        6.0181910242
  H        13.3759893193       11.6310393842        1.2011455045
  H        50.3224947692       22.7487696234        3.9872537215
  H        49.3192293607       24.6231004294        2.6810943225
  H        45.6413862801       24.1605076672        4.8631968065
  H        46.6623668606       22.2897442243        6.1715631833
  H        47.6294667718       23.5757759945        1.2461526565
  H        14.8714716161        8.5879704425        4.6084796768
  H        50.2868671393       22.7028933732       12.0600677282
  H        49.2687778025       24.5757209425       13.3601232341
  H        45.6098652820       24.1085441267       11.1464263172
  H        46.6520350112       22.2533314236        9.8321672937
  H        47.6074697864       23.5517396118       14.7968204485
  H        40.6305979530       17.0758961385       11.4110189475
  H        48.6869645785       14.0950649603        7.7999886487
  H        10.6809817929       12.4670686363       12.0936366718
  H        11.6888493312       10.5249453148       13.2973676128
  H        15.3923649125       11.1573259204       11.2046509976
  H        14.3641715504       13.0859617707        9.9893333719
  H        13.3753767857       11.6218124115       14.7529430910
  H        47.9299817089       14.2185297347        9.7106802438
  H        47.7798853031       14.3737097420        6.4952360428
  H        49.0818620292       18.5517929937       10.8669488090
  H        10.4155656088       14.1343627296        7.9988087068
  H        24.4737523625        3.0298149755        3.9103801441
  H        25.6036530049        4.8926410496        2.6776042073
  H        23.2206224299        7.7526214267        4.8319598383
  H        22.1099115238        5.8801393397        6.0666683268
  H        23.7920439310        5.7906164663        1.2491761413
  H        36.3589491145       32.1938578169        3.9846468774
  H        35.2095781704       30.3774438848        2.7181545975
  H        37.4655657430       27.4387993543        4.9033682237
  H        38.5948719017       29.2682295651        6.1801425987
  H        36.9760363596       29.4594763544        1.2992067893
  H        25.6979853448        8.6143194082        4.6412716599
  H        36.4496788055       32.2410865048       12.1111460206
  H        35.3357517438       30.4285037626       13.4088573053
  H        37.5414791679       27.4860738963       11.1760273149
  H        38.6291946971       29.3101935226        9.8643502043
  H        37.0147605737       29.4760752326       14.8525177212
  H        46.1085777317       26.5871968408       11.3855202981
  H        44.6680904899       35.1160681818        7.8140394771
  H        24.4418802258        3.0395496676       12.0758301084
  H        25.5748089024        4.8816933751       13.3238888663
  H        23.1615642891        7.7665810675       11.2382773443
  H        22.0408022447        5.9124725828        9.9897899781
  H        23.7822837698        5.7906867876       14.7997183870
  H        44.9532868015       34.3898131469        9.6947964851
  H        44.9015651067       34.2066725784        6.4906875112
  H        40.6656102425       33.2083028908       10.8529088377
  H        23.1501081505        1.9573516386        8.0045309803
  H        25.7729928753       19.6465091949        3.9355124567
  H        23.6087625266       19.7018667608        2.6932464369
  H        22.3057253629       16.1992508751        4.8212394273
  H        24.4767573714       16.1577744825        6.0615330737
  H        23.7033894140       17.6766204881        1.2436779167
  H        35.1257619347       15.4657077130        3.9604449334
  H        37.2599059788       15.4011555466        2.6683555584
  H        38.6937675366       18.7927226395        4.8923965525
  H        36.5602378980       18.8295354036        6.1959314820
  H        37.2191324484       17.3682392756        1.2419981724
  H        20.3228772832       17.9613604370        4.6510664319
  H        35.1575945758       15.4335389377       12.0784664788
  H        37.2939418711       15.3624182929       13.3651985889
  H        38.7157206221       18.7815796872       11.1768429577
  H        36.5748268488       18.8335960217        9.8865819140
  H        37.2294144039       17.3547338790       14.7927920035
  H        35.1632144752       26.6748012353       11.4081151316
  H        28.4936849709       21.0742106246        7.8792429674
  H        25.7516258701       19.6516977644       12.1415867413
  H        23.5654962294       19.7125920113       13.3571859534
  H        22.3017865247       16.1880306281       11.2422393067
  H        24.4900869024       16.1452271857       10.0277419922
  H        23.6932335515       17.6746505933       14.7927194359
  H        29.0246745517       21.7123551916        9.7278240495
  H        29.2197371801       21.6831735778        6.5654450814
  H        32.0813054169       18.5535963933       10.9175875420
  H        27.3671421646       19.0185199622        8.0785632759
  H        14.8532170470       19.6707305801       12.1094576504
  H        17.0211696491       19.7278578442       13.3463463657
  H        18.3038078594       16.1997423768       11.2476285431
  H        16.1321801319       16.1587973501       10.0098383621
  H        16.9118477127       17.7244876220       14.8144051798
  H        46.0858922721       15.4309185594       12.0568083556
  H        43.9587933693       15.3623359419       13.3580405342
  H        42.5402120835       18.8017712451       11.1989836171
  H        44.6674752944       18.8448627240        9.8864293654
  H        44.0139178125       17.3022637268       14.8218014573
  H        20.2969293704       17.9472813501       11.4054133203
  H        46.0415725914       15.3845928048        4.0339720429
  H        43.9123178223       15.3177465132        2.7374659708
  H        42.5185870111       18.7884983294        4.8613896032
  H        44.6539238399       18.8409800125        6.1599482885
  H        44.0034660174       17.2890393675        1.2706452042
  H        46.1984957503       26.6822982238        4.6232973606
  H        52.7410753266       21.0625808221        8.1946000709
  H        14.8650289576       19.6777143430        3.9052523111
  H        17.0600705696       19.7516485920        2.7105435272
  H        18.3110985301       16.2076616437        4.8010793171
  H        16.1185503128       16.1582703871        6.0063551164
  H        16.9213186812       17.7285491621        1.2629696162
  H        52.3220276549       21.6734726209        6.2948043256
  H        52.0131796019       21.7022732052        9.4954510275
  H        49.0669592251       18.6078605751        5.2044309197
  H        13.2470506899       19.0166048498        7.9759779761
  H        29.9624012361       12.4283925259       12.2058986148
  H        28.8906322304       10.4990457935       13.3827437886
  H        25.2397929279       11.2192745749       11.2281307806
  H        26.3267602577       13.1417102150       10.0524907913
  H        27.1712028896       11.6651350839       14.7878319476
  H        30.9922690023       22.7816172313       11.9993864287
  H        31.9960799517       24.6596803069       13.2989557627
  H        35.7048839289       24.1205868231       11.1887312846
  H        34.6802888516       22.2490634704        9.8833199729
  H        33.6502963048       23.5857481568       14.7642818076
  H        25.7101143589        8.5941390164       11.3968540383
  H        30.8875072767       22.6869661570        3.9346472434
  H        31.8946418269       24.5640755234        2.6362981834
  H        35.5345918431       24.1567049426        4.8923678162
  H        34.5080652992       22.2892386873        6.1947901425
  H        33.5968091312       23.5772579485        1.2129850126
  H        40.5945028452       17.0779634168        4.6528454896
  H        32.5085782982       14.1538625182        8.2382974610
  H        29.8890721137       12.4773001382        3.9267804376
  H        28.8445194783       10.5829775675        2.6809581477
  H        25.1685149992       11.2108582941        4.8223242853
  H        26.2311807017       13.0988347422        6.0732515356
  H        27.1515624885       11.6825895618        1.2386524161
  H        33.2974795646       14.2188192848        6.4363664361
  H        33.4055696536       14.4125599731        9.5923635901
  H        32.0213774620       18.5027008880        5.0732650593
  H        30.2073992204       14.1447871690        8.0796532596
  H        16.1184798431        2.9627325372       12.1300892452
  H        14.9529219611        4.8196013810       13.3227697544
  H        17.3645781295        7.6856384401       11.2095740215
  H        18.5136496058        5.8182259657       10.0097602954
  H        16.7528071060        5.7391114793       14.7714792684
  H        44.8280469425       32.1400424607       11.9768607874
  H        45.9372094878       30.3410816915       13.3063077737
  H        43.6817619393       27.3780397202       11.1525866164
  H        42.5992122675       29.1898975474        9.8099541984
  H        44.2300284809       29.4365861594       14.7688402880
  H        14.8498112971        8.5453684847       11.3632554504
  H        44.8999576096       32.2338569815        3.9320806375
  H        46.0246913476       30.4127652383        2.6524531495
  H        43.7625902401       27.4839361605        4.8448532537
  H        42.6449570218       29.3175713906        6.1239834403
  H        44.2681886633       29.4703793704        1.2181127983
  H        35.0019728684       26.6340095833        4.6498117345
  H        36.6050984985       35.1339063590        8.1805755852
  H        16.1436310028        3.0126442952        3.9037468919
  H        14.9738952497        4.8559258601        2.6880606073
  H        17.3949917904        7.7470680444        4.7555817956
  H        18.5421388760        5.8931601206        5.9832600234
  H        16.7640879536        5.7551786062        1.2192250200
  H        36.2786490702       34.4821003568        6.2735087149
  H        36.3804540801       34.2091085690        9.4996906419
  H        40.5787141968       33.2013109144        5.1545166742
  H        17.4705260013        1.9469416768        7.9740137106
  H        29.2658667666       19.4519352674       12.5287290938
  H        28.8927754254       19.1364125194        3.6832511316
  H        30.6467331688       15.4647416374        3.7746725181
  H        31.5495927509       15.7439402519       12.5641576471
  H        28.1640624064       18.0472279998       14.2857262119
  H        29.8100811921       15.4126291652       14.2827652721
  H        18.8526138469        0.8688234444       12.3349665911
  H        40.5280620598       35.2289153129        3.9522437480
  H        42.3226991831       34.4175173017        3.5912359535
  H        22.0874988394        0.6917220960       12.3515561383
  H        11.5967441258       18.7127991556       12.3824934180
  H        52.2645474246       18.4311279281        3.6775661882
  H        49.2546765961       16.4768200273        3.5845394748
  H        10.1504401343       15.7982952040       12.2926361192
  H        50.8496342306       17.6926213198        3.9541076127
  H        10.0459954963       17.3947148038       12.0519659047
  H        20.2136625994        0.0018967378       12.0421054091
  H        39.1834829566       36.1241537926        3.6862813140
 Ni        30.2660757471       17.5263931082        2.6673326085
 Ni        30.4731292185       16.3856143947        0.4090002559
 Ni        29.5459776387       18.3799452972        0.2522876728
 Ni        30.2226562927       17.4999299958       13.2400469304
  O        10.6498615186       14.3651636287        5.4857835666
  O        12.6130805038       14.6574178759        6.5838907171
  O        49.1476176565       16.8459861945        7.9897765544
  O        50.3500672345       20.9362968539        5.6482842152
  O        48.3484571998       20.5932612417        6.6659990297
  O        11.0508342991       17.0540874376        6.5006295568
  O        50.3207777425       20.8817319403       10.4068612501
  O        48.3466427712       20.5866879604        9.3270769157
  O        49.5432392824       18.2484502496       10.0683739260
  O        12.3587426113       18.6246503572        7.9997437036
  O        48.6931413032       14.1486416660        6.7512649381
  O         8.2098014896       14.2104425280        9.3225628862
  O        10.7352705830       14.5067485074       10.6643528664
  O        12.5717434837       14.5827315616        9.3285597047
  O        22.8440692173        2.0424656946        5.4874440012
  O        21.6040945394        3.5914539636        6.5906345073
  O        42.0578010990       34.1368953994        7.9790318626
  O        37.9813747028       33.1370883907        5.5725947735
  O        39.2172490200       31.5752874352        6.6656905488
  O        20.3082522840        1.0393155468        6.5017505646
  O        38.0241371722       33.1844475673       10.4158023861
  O        39.2181682802       31.5827671360        9.3276429056
  O        40.6520172589       33.7689115263       10.0602186137
  O        18.2554924318        1.3761614594        7.9968036180
  O        44.6222267404       35.1005058465        6.7587751789
  O        24.2053851378       -0.0000478588        9.3208342262
  O        22.7527995965        2.0571604652       10.5832905976
  O        21.6236580036        3.5952212652        9.3412423461
  O        27.4608424197       18.6948554983        5.4882530670
  O        26.6930940300       16.9153129692        6.6684456869
  O        30.6302275046       19.3483581685        8.0066369402
  O        33.5333499634       16.3380007652        5.5834200346
  O        34.2664609798       18.1666411219        6.7304597952
  O        29.5330528467       17.0074672961        6.5763654488
  O        33.5502727452       16.3386230005       10.4103049729
  O        34.2942916384       18.2378227198        9.3989256760
  O        31.6514160200       18.3159819545       10.0786328577
  O        30.2953120813       15.1114635152        8.0762746896
  O        28.5485738171       21.0264919944        6.8308588676
  O        28.5144783049       20.9506095026        9.4035617174
  O        27.4608968844       18.6792967612       10.6594730201
  O        26.6912677263       16.9274438725        9.4185694364
  O        13.1472533226       18.6936870355       10.5864401562
  O        13.9183428170       16.9160291998        9.4042735740
  O        50.5955710566       19.3502530902        8.0208181620
  O        47.6823038552       16.3272003655       10.4173262797
  O        46.9502240940       18.1756335150        9.3255163328
  O        11.0688583063       17.0159582309        9.4896705718
  O        47.6747663511       16.3359183902        5.6528190741
  O        46.9253549292       18.2359207886        6.6633888535
  O        49.5685966613       18.3177871144        5.9823418051
  O        10.3185205135       15.1002414136        7.9971145555
  O        52.6706989358       21.0279957151        9.2418244484
  O        12.1467909668       20.8913665567        6.6733033613
  O        13.1050186733       18.6142168319        5.3261901586
  O        13.9552310253       16.9864229739        6.6655311811
  O        29.9943038906       14.4418491377       10.7294745133
  O        28.0872256481       14.6508833754        9.4981045640
  O        32.0703335983       16.8559693626        8.0166720681
  O        30.9636901429       20.9489004622       10.4034167472
  O        32.9445757397       20.5977077652        9.3315223337
  O        29.5591918267       17.0677462836        9.5703614254
  O        30.8466325877       20.8863923369        5.6593186231
  O        32.8671106442       20.5822483111        6.6625118274
  O        31.6105677066       18.2435794207        5.9149297158
  O        28.2553456430       18.6264749340        8.0672542874
  O        32.4904425165       14.2139416293        9.3212014016
  O        32.4018275720       14.2221469533        6.8135893003
  O        29.9037551317       14.4334270195        5.4238040457
  O        28.0452901089       14.5789418190        6.7366350460
  O        17.8891444836        1.9664222416       10.6628439684
  O        18.9560622269        3.5270962284        9.4081031585
  O        39.1685353802       34.1385669279        7.9971297469
  O        43.2801869269       33.0588389305       10.3316609667
  O        42.0343421084       31.5064329915        9.2415775141
  O        20.3171577998        1.0361078746        9.4805192415
  O        43.2760545204       33.1824534399        5.5749321628
  O        42.0051635666       31.5840860099        6.5830348919
  O        40.5790339519       33.7748884424        5.9360109643
  O        22.3669954590        1.3841763893        7.9980041772
  O        36.6727529457       35.0996292359        9.2332905948
  O        16.4455152179        0.0641689078        6.6683398572
  O        17.9363437623        2.0431976721        5.3263700348
  O        18.9187993638        3.5931369248        6.6658617625
  O        29.7377623385       18.8270937062        4.0564685543
  O        29.8720513321       18.9027726797       11.9970261454
  O        31.0148512111       16.3351520969        4.0126280208
  O        31.2687188430       16.4961168515       12.0113836900
  O        30.5113103818       16.0519566259       14.5088063640
  O        29.0357392199       18.4617008120       14.4243191452
  O        39.4567428699       35.2436368253        4.0019932820
  O        19.1405600698        0.0042218548       11.9906149291
  O        41.9694463551       35.1723970310        4.0871753279
  O        21.6910554232       -0.0695626377       11.8957641387
  O        51.3646472183       18.6143429731        4.0053236969
  O        10.7509412522       18.7471976125       11.9050034472
  O        50.0791775249       16.4127491168        4.0917446226
  O         9.5245028156       16.4831080509       11.9912190431
 Zr         9.2960808435       16.0529489253        6.1822127847
 Zr        49.8356465289       16.0070209014        9.7467050245
 Zr        22.0730048111        0.0288652660        6.1893588474
 Zr        42.4605554014       35.1526588565        9.8007989698
 Zr        29.5627889771       19.0370097112        6.2399792522
 Zr        29.5741328348       19.1708169536        9.8328786791
 Zr        11.0371380851       19.0524222219        9.8277762344
 Zr        11.0429317495       19.1551929965        6.2514301720
 Zr        31.3325140505       16.1029267758        9.8375141147
 Zr        31.3511133006       16.0106854155        6.2292927586
 Zr        18.6005406439       -0.0025381800        9.7635311333
 Zr        18.5062960091       -0.0083238761        6.2134088905
 Zr        12.3005564436       16.3234235425        7.9905899052
 Zr        48.6152526142       18.8328443740        8.0103648139
 Zr        20.3139384312        2.4721415551        7.9906840229
 Zr        40.6424724810       32.6860188366        7.9782280383
 Zr        28.3212062321       16.3174198680        8.0855277022
 Zr        32.6098122203       18.8357149543        8.0230467850
  H        30.1283443823       16.1722426380        1.8996806179
  H        30.0156944146       18.7621420928        1.6961399065
