     566
 i =      199, E =     -4712.2877235442
  C        11.8586626782       14.0534375481        5.7415400367
  C        12.4560913010       12.8904854471        5.0232136804
  C        11.7043788446       12.1716701980        4.0814860005
  C        12.2806727146       11.1094141228        3.3891533993
  C        13.6212030209       10.7394728102        3.6169354632
  C        14.3543982342       11.4429410801        4.5904597546
  C        13.7815748021       12.5079459326        5.2819737716
  C        14.2606144441        9.6487384727        2.8435476363
  C        14.2557831089        9.6565677514        1.4218452849
  C        13.7426517230       10.7586976297        0.6679260729
  C        49.1266417622       21.2333322140        5.8797352279
  C        48.5497729298       22.4012099654        5.1526912176
  C        49.2997524130       23.0684990711        4.1716362502
  C        48.7327681694       24.1075561164        3.4383784424
  C        47.4022329943       24.5091862444        3.6670508108
  C        46.6712979983       23.8603240352        4.6805910312
  C        47.2338172374       22.8154877876        5.4099895095
  C        46.7719672567       25.5868322439        2.8697428384
  C        46.7609900711       25.5572154952        1.4479823887
  C        47.2609290356       24.4421234256        0.7044900239
  C        14.8595999954        8.5701558263        0.7085899864
  C        14.8914092678        8.5967997498        3.5202013893
  C        49.1130380215       21.2033864881       10.1454361647
  C        48.5276350205       22.3647765795       10.8724954821
  C        49.2667709802       23.0253634379       11.8655611804
  C        48.6904448574       24.0599223906       12.5970071238
  C        47.3601051489       24.4568396457       12.3585872976
  C        46.6398009176       23.8121232488       11.3348590837
  C        47.2133779771       22.7762195836       10.6030899679
  C        46.7216091533       25.5317556797       13.1496320247
  C        46.7332746108       25.5280554648       14.5713386043
  C        47.2486924031       24.4288345565       15.3277269497
  C        40.6208624342       17.0902198352       15.3106557317
  C        40.6328592628       17.1193661815       12.5004256968
  C        11.8828393926       14.0863624545       10.2855060411
  C        12.4719417934       12.9104300616       10.9896453204
  C        11.7143561519       12.1774108761       11.9158485903
  C        12.2807669264       11.0948703337       12.5842684045
  C        13.6194901366       10.7208511523       12.3523162554
  C        14.3575385882       11.4362148060       11.3914158157
  C        13.7922607015       12.5174589054       10.7187251385
  C        14.2529842480        9.6240759632       13.1227665298
  C        14.2517279864        9.6440737220       14.5446062979
  C        13.7419964748       10.7530913131       15.2916714026
  C        22.5088848212        3.2431229236        5.7518326767
  C        23.2183909426        4.3474666647        5.0477105349
  C        24.2128936630        4.0661391344        4.0995462280
  C        24.8359832849        5.1049844394        3.4135313688
  C        24.4792664785        6.4462508596        3.6558639515
  C        23.5123037768        6.7191369201        4.6403774756
  C        22.8848593907        5.6821651786        5.3251053538
  C        25.0841465330        7.5518142102        2.8799937867
  C        25.0638793097        7.5427526836        1.4586922082
  C        24.3649109499        6.5427218570        0.7107740078
  C        38.2979250801       31.9279750791        5.8518961308
  C        37.5560133534       30.8399597883        5.1500484560
  C        36.5904821963       31.1485003675        4.1792025621
  C        35.9587886809       30.1318589330        3.4680372730
  C        36.2770119995       28.7799324023        3.7040801523
  C        37.2122392247       28.4788059213        4.7123892495
  C        37.8478981493       29.4945102507        5.4231197150
  C        35.6639029932       27.6930997303        2.9053825812
  C        35.7015277729       27.7082858066        1.4835361605
  C        36.4158800671       28.7074829812        0.7498447220
  C        25.6910537237        8.6115472753        0.7408643301
  C        25.6764264530        8.6278447318        3.5524604260
  C        38.3299071076       31.9600583683       10.1605365134
  C        37.6124698024       30.8868841297       10.9097803947
  C        36.6781127955       31.1966242591       11.9103675378
  C        36.0668352766       30.1800738285       12.6426052834
  C        36.3743997331       28.8260545038       12.3994833440
  C        37.2898649579       28.5262109783       11.3716474957
  C        37.9028523485       29.5393666496       10.6402923475
  C        35.7574499781       27.7284689845       13.1817755746
  C        35.7491424113       27.7264139067       14.6046044237
  C        36.4369889329       28.7173370846       15.3732077892
  C        46.1352174207       26.6206649643       15.2814764138
  C        46.0876455189       26.5801147229       12.4735868416
  C        22.4612231592        3.2543927186       10.2551177279
  C        23.1578547110        4.3621653882       10.9744818553
  C        24.1642552871        4.0746670697       11.9099735121
  C        24.7945134491        5.1043352962       12.6037382441
  C        24.4374111119        6.4495166694       12.3840400559
  C        23.4545268840        6.7304513842       11.4165419180
  C        22.8198313976        5.7010444140       10.7229023049
  C        25.0681389900        7.5458822610       13.1588071722
  C        25.0566979519        7.5388614232       14.5809324091
  C        24.3592414180        6.5422602497       15.3340998063
  C        26.5649588010       17.8238242019        5.7875525231
  C        25.2632820113       17.8799811648        5.0606739456
  C        25.0144962904       18.8759699989        4.1041905658
  C        23.8060290340       18.8989648854        3.4122077668
  C        22.8137848533       17.9285526577        3.6564470262
  C        23.0578429646       16.9562133409        4.6439415867
  C        24.2677912448       16.9285350506        5.3337847709
  C        21.5475950116       17.9152803869        2.8858329924
  C        21.5558004619       17.8961695446        1.4641793186
  C        22.7651298010       17.7683770003        0.7102746660
  C        34.4166987482       17.2194313634        5.8842648916
  C        35.7185669884       17.1575811692        5.1568165579
  C        35.9201870621       16.1884779064        4.1616580140
  C        37.1061413586       16.1639441345        3.4337117940
  C        38.1210742624       17.1098829662        3.6771558447
  C        37.9227938813       18.0576666503        4.6994106851
  C        36.7354310056       18.0852682344        5.4279756134
  C        39.3748110731       17.1135503788        2.8892316997
  C        39.3677165712       17.1187754761        1.4668497125
  C        38.1591040531       17.2351998420        0.7101995162
  C        20.3128043013       17.9207477570        0.7509766034
  C        20.3214439612       17.9170829603        3.5635225171
  C        34.4447624875       17.2450947853       10.1785289755
  C        35.7450132094       17.1478941549       10.9044494086
  C        35.9655060289       16.1487383733       11.8647204738
  C        37.1533928205       16.1219232076       12.5916711743
  C        38.1531105227       17.0901639303       12.3747671554
  C        37.9408966265       18.0619269714       11.3789579555
  C        36.7508350674       18.0957734634       10.6578542521
  C        39.4030446158       17.1024867258       13.1681071784
  C        39.3821664772       17.1107377267       14.5893921777
  C        38.1658764798       17.2277859626       15.3333049422
  C        35.1066608871       26.6515591267       15.3055257239
  C        35.1743334362       26.6549514838       12.4956591428
  C        26.5719276828       17.8261231002       10.3266487141
  C        25.2579016191       17.8721575398       11.0330434404
  C        24.9918375848       18.8789056214       11.9732012097
  C        23.7737344109       18.9034556669       12.6463723224
  C        22.7924713973       17.9228698597       12.3992595292
  C        23.0525148076       16.9414569960       11.4261212188
  C        24.2722025100       16.9134354038       10.7534446041
  C        21.5264654573       17.9056876954       13.1668807677
  C        21.5443575189       17.8906559869       14.5878442773
  C        22.7592658064       17.7657974041       15.3339011989
  C        14.0459986425       17.8312214916       10.2846336220
  C        15.3525427838       17.8933471845       11.0024210551
  C        15.6124266513       18.9031499104       11.9417012227
  C        16.8232502665       18.9264400822       12.6303630389
  C        17.8058671180       17.9426264264       12.4006934223
  C        17.5518766847       16.9585582156       11.4271671020
  C        16.3406273795       16.9308025880       10.7400117108
  C        19.0719614078       17.9222789157       13.1717601041
  C        19.0632741504       17.9141831893       14.5934894451
  C        17.8518481866       17.8171661442       15.3480174721
  C        46.8029490844       17.2168772117       10.1572096792
  C        45.5100226129       17.1490789668       10.8987230467
  C        45.3029295150       16.1651914341       11.8780480503
  C        44.1191737202       16.1401307781       12.6108490433
  C        43.1118153416       17.0990732163       12.3872568760
  C        43.3157513072       18.0621001795       11.3804093402
  C        44.5002495064       18.0908319269       10.6481691304
  C        41.8585124913       17.1049621258       13.1769069258
  C        41.8663228996       17.1033844732       14.5992135890
  C        43.0764936276       17.1990399229       15.3560549907
  C        20.3065198376       17.9176031925       15.3068645738
  C        20.2981049574       17.9008311890       12.4943483645
  C        46.7845350143       17.2321729188        5.8869586937
  C        45.4824596337       17.1269142898        5.1678263544
  C        45.2646004601       16.1263369704        4.2083708488
  C        44.0772187568       16.0973350962        3.4807858548
  C        43.0774088326       17.0661456532        3.6947176983
  C        43.2863081453       18.0376764529        4.6915543373
  C        44.4746639841       18.0727381499        5.4146032981
  C        41.8298543319       17.0843767857        2.8986379747
  C        41.8518280536       17.0921545159        1.4772786992
  C        43.0695473996       17.1909121633        0.7330346939
  C        46.1529648220       26.6370833804        0.7262305216
  C        46.1620317578       26.6559637501        3.5358646908
  C        14.0399478687       17.8278912944        5.7063809864
  C        15.3541360414       17.8950891420        5.0068199316
  C        15.6249462177       18.9134572491        4.0811429521
  C        16.8493183420       18.9472628127        3.4188449609
  C        17.8272426609       17.9616602062        3.6581890187
  C        17.5623506555       16.9699714264        4.6196009174
  C        16.3401870108       16.9356958771        5.2855318269
  C        19.0933526153       17.9381997651        2.8909508275
  C        19.0745950074       17.9210693375        1.4700318842
  C        17.8574088277       17.8199751281        0.7243166225
  C        28.8089028166       14.0887809498       10.3923886793
  C        28.1979793190       12.9114591768       11.0736688241
  C        28.9288601975       12.1592713539       12.0047964393
  C        28.3312869944       11.0837136589       12.6567441390
  C        26.9898704083       10.7366707026       12.3989210933
  C        26.2808588437       11.4678484001       11.4294525480
  C        26.8759489513       12.5443087595       10.7770487366
  C        26.3217608355        9.6561908795       13.1593541397
  C        26.3072983630        9.6819559585       14.5799341941
  C        26.8120898102       10.7939709953       15.3259142233
  C        32.1803431373       21.2346796175       10.1398710307
  C        32.7748823298       22.3993743355       10.8640914841
  C        32.0188106297       23.0884503928       11.8254027917
  C        32.5853691719       24.1290455642       12.5556426389
  C        33.9250556125       24.5108107038       12.3472560037
  C        34.6644739247       23.8404741762       11.3541378398
  C        34.0998721191       22.7945472468       10.6252871547
  C        34.5475605811       25.5889888872       13.1513539936
  C        34.5194169025       25.5674662561       14.5736018107
  C        33.9955822125       24.4583715614       15.3103875893
  C        25.6926950279        8.6056214773       15.2967042434
  C        25.6851282627        8.6073713065       12.4839649602
  C        32.0670124327       21.1993969420        5.8740695261
  C        32.6343413606       22.3696837329        5.1387850834
  C        31.8972998498       23.0246731323        4.1400603038
  C        32.4687780030       24.0654187616        3.4096479067
  C        33.7919647677       24.4820524114        3.6576891680
  C        34.5094717080       23.8425285409        4.6872117698
  C        33.9431566171       22.7982164675        5.4130459711
  C        34.4334218730       25.5659806367        2.8754232772
  C        34.4597669207       25.5563501933        1.4527665430
  C        33.9657139205       24.4535089217        0.6871600783
  C        40.6129949033       17.0893777695        0.7557854555
  C        40.6000506654       17.1125332416        3.5658654532
  C        28.7328294763       14.0644280058        5.7843773283
  C        28.1177535070       12.9170790585        5.0570585967
  C        28.8561531496       12.2036454258        4.1003295976
  C        28.2719526756       11.1466171733        3.4084588628
  C        26.9337131610       10.7771719348        3.6486792603
  C        26.2124331922       11.4756914780        4.6345961028
  C        26.7952723573       12.5336761665        5.3290487337
  C        26.2919957339        9.6880806365        2.8761309809
  C        26.2922411548        9.6993346259        1.4546611694
  C        26.8019785468       10.8037489925        0.7018472835
  C        18.1351996688        3.1808413380       10.3171177874
  C        17.4057509231        4.2779824422       11.0157511906
  C        16.3900186851        3.9994754209       11.9432067644
  C        15.7421205064        5.0393625594       12.6066769028
  C        16.0938985493        6.3831260654       12.3670658258
  C        17.0833177816        6.6527962374       11.4033850779
  C        17.7325717645        5.6155474887       10.7383435853
  C        15.4694167056        7.4907389761       13.1300968659
  C        15.4846826207        7.4900525699       14.5518104113
  C        16.1863154420        6.4964926656       15.3049775004
  C        42.9457039901       31.8594808207       10.0728817237
  C        43.6460693179       30.7717672314       10.8167935989
  C        44.5914694150       31.0930972354       11.8029757501
  C        45.1971457064       30.0875433345       12.5506474925
  C        44.8708010995       28.7344807085       12.3356760116
  C        43.9451269485       28.4201400565       11.3223256587
  C        43.3363398466       29.4252896706       10.5742732178
  C        45.4883631147       27.6551844701       13.1388730479
  C        45.4924780688       27.6807776758       14.5605653806
  C        44.8053540820       28.6888019901       15.3071863999
  C        14.8557426585        8.5625701388       15.2641587551
  C        14.8741395539        8.5624959484       12.4514975339
  C        42.9463768160       31.9615247046        5.8090364675
  C        43.6915491233       30.8853433237        5.0955518785
  C        44.6561600320       31.1912440653        4.1232687757
  C        45.2776030509       30.1716438681        3.4054966027
  C        44.9537008665       28.8213485371        3.6430554221
  C        44.0201766337       28.5236919602        4.6537879037
  C        43.3919872028       29.5404660795        5.3660193581
  C        45.5627173525       27.7239429877        2.8578118669
  C        45.5329936919       27.7172342625        1.4365204587
  C        44.8266337797       28.7074428475        0.6835786723
  C        35.0792072476       26.6442239065        0.7513180535
  C        35.0475980290       26.6215344716        3.5619930478
  C        18.1484744540        3.2468833624        5.7065138346
  C        17.4297977918        4.3436461305        4.9971848293
  C        16.4144689301        4.0523075817        4.0737702507
  C        15.7660425681        5.0829122042        3.3984490014
  C        16.1207293092        6.4281599161        3.6210541449
  C        17.1122562962        6.7116021087        4.5781354873
  C        17.7600351875        5.6827262165        5.2578545295
  C        15.4901410162        7.5238125382        2.8486178826
  C        15.4958750304        7.5070909641        1.4274835130
  C        16.1926004876        6.5053641945        0.6807890688
  H        10.6722826296       12.4658974721        3.9044498155
  H        11.6943551248       10.5509669622        2.6626115858
  H        15.3913933078       11.1682342164        4.7722354796
  H        14.3510542823       13.0710285527        6.0175060904
  H        13.3758239152       11.6309158337        1.2012088181
  H        50.3224640822       22.7484784315        3.9869011933
  H        49.3192201852       24.6228238966        2.6807764544
  H        45.6418105641       24.1611105901        4.8637805273
  H        46.6628353901       22.2902742937        6.1721268889
  H        47.6294451477       23.5757368146        1.2461757553
  H        14.8718906428        8.5881321498        4.6085120023
  H        50.2867503903       22.7023820693       12.0605894439
  H        49.2687725238       24.5752699837       13.3606325704
  H        45.6104763830       24.1095398616       11.1456196032
  H        46.6526422046       22.2542259663        9.8313488522
  H        47.6074770081       23.5517172000       14.7968324559
  H        40.6368691034       17.0907308113       11.4124361680
  H        48.6871212350       14.0950684593        7.8000385560
  H        10.6809659588       12.4667127916       12.0933342165
  H        11.6889244154       10.5245930269       13.2970179361
  H        15.3929182349       11.1581556531       11.2054412493
  H        14.3647032595       13.0867130713        9.9901878771
  H        13.3752780458       11.6217397754       14.7530184650
  H        47.9301100366       14.2185680866        9.7107787816
  H        47.7799731565       14.3740446963        6.4954285289
  H        49.0826772778       18.5521626406       10.8671274545
  H        10.4159337703       14.1342979447        7.9987872780
  H        24.4751548225        3.0274338819        3.9113436568
  H        25.6082532357        4.8879465783        2.6787775089
  H        23.2302110560        7.7521750426        4.8328039698
  H        22.1161947784        5.8821103940        6.0675585793
  H        23.8012327781        5.7866231186        1.2494954327
  H        36.3598305853       32.1930210924        3.9835115124
  H        35.2108957489       30.3764373913        2.7169067693
  H        37.4663035212       27.4381802011        4.9033632202
  H        38.5952278850       29.2679723535        6.1799875322
  H        36.9790074508       29.4564257341        1.2989931173
  H        25.7058446836        8.6126294890        4.6404458156
  H        36.4498351841       32.2409674505       12.1111772195
  H        35.3358019496       30.4283318061       13.4089306505
  H        37.5420219186       27.4859697932       11.1763687849
  H        38.6299326161       29.3103405429        9.8649179031
  H        37.0170864167       29.4735443620       14.8520685636
  H        46.1091209892       26.5875548343       11.3855529330
  H        44.6682038709       35.1161756008        7.8140788121
  H        24.4424237667        3.0361889822       12.0746407101
  H        25.5782520847        4.8762789921       13.3229681318
  H        23.1685871274        7.7652008467       11.2390902221
  H        22.0447086765        5.9133060438        9.9901961817
  H        23.7906354754        5.7863191504       14.8003373544
  H        44.9535983136       34.3900505391        9.6949267420
  H        44.9018112590       34.2067557588        6.4907587422
  H        40.6658949234       33.2087737119       10.8531113814
  H        23.1500750688        1.9577362974        8.0044820901
  H        25.7789721411       19.6268597793        3.9192551407
  H        23.6145312079       19.6762322858        2.6755707225
  H        22.3008750108       16.1993741657        4.8391469670
  H        24.4710323809       16.1650203280        6.0808896531
  H        23.7024612372       17.6400966940        1.2440363752
  H        35.1276638638       15.4699260399        3.9661160058
  H        37.2612227684       15.4043830831        2.6706452134
  H        38.6980515098       18.7963727224        4.8922602079
  H        36.5662145350       18.8324197890        6.1999989555
  H        37.2202957882       17.3624562448        1.2416566272
  H        20.3237111749       17.9545119915        4.6514131826
  H        35.1923139203       15.4033866578       12.0369325574
  H        37.3208532828       15.3451959885       13.3347027107
  H        38.7063137569       18.8154087874       11.2049658058
  H        36.5668502250       18.8639509146        9.9105618197
  H        37.2321441594       17.3476722544       14.7913955304
  H        35.1614124788       26.6761567506       11.4075497029
  H        28.4899406989       21.0731837630        7.8749334058
  H        25.7514385755       19.6357559606       12.1555969959
  H        23.5658086159       19.6872336713       13.3715917357
  H        22.3020955790       16.1781638281       11.2307566055
  H        24.4904327269       16.1442112614       10.0165910119
  H        23.6920040773       17.6357415727       14.7931517984
  H        29.0241265851       21.7128660264        9.7270209994
  H        29.2314892544       21.6732491838        6.5696991302
  H        32.0893686203       18.6141268726       10.8864600633
  H        27.3629036112       19.0096364721        8.0717825627
  H        14.8547156874       19.6634932479       12.1172230770
  H        17.0227142046       19.7136930919       13.3542072073
  H        18.3019612132       16.1923786680       11.2421121953
  H        16.1303104551       16.1579752699       10.0045793797
  H        16.9115569801       17.7080406931       14.8155833825
  H        46.0870209751       15.4336470167       12.0587080520
  H        43.9604693382       15.3696060305       13.3621407016
  H        42.5466506416       18.8109252621       11.2026508519
  H        44.6732254139       18.8490727018        9.8879910409
  H        44.0174316641       17.3114937059       14.8251189297
  H        20.2968210297       17.9339141587       11.4063103279
  H        46.0413055155       15.3850548941        4.0346619856
  H        43.9116028454       15.3199239192        2.7380743242
  H        42.5200883359       18.7907718582        4.8634464359
  H        44.6560465569       18.8414980029        6.1617529316
  H        44.0053885229       17.2960061883        1.2743149156
  H        46.1988729921       26.6824980661        4.6233103770
  H        52.7412463568       21.0626227139        8.1946499085
  H        14.8667300074       19.6718253940        3.8991816916
  H        17.0620020188       19.7397933951        2.7046314865
  H        18.3107501936       16.2032233431        4.8088417171
  H        16.1178871846       16.1592584279        6.0134272802
  H        16.9212734664       17.7129554072        1.2641316888
  H        52.3224675079       21.6736132796        6.2946221713
  H        52.0134931141       21.7024682856        9.4954738737
  H        49.0676012960       18.6079906622        5.2042310355
  H        13.2474105637       19.0161396490        7.9762171468
  H        29.9628336398       12.4340766189       12.2012607649
  H        28.8974471225       10.4992574450       13.3787923714
  H        25.2443242925       11.2083649906       11.2242528933
  H        26.3263711312       13.1316648708       10.0456671985
  H        27.1799540937       11.6613640771       14.7858947226
  H        30.9886149959       22.7848900985       11.9945097105
  H        31.9919542977       24.6613474809       13.2958361431
  H        35.7013197783       24.1245468954       11.1859379080
  H        34.6771348237       22.2541834010        9.8784268351
  H        33.6418600182       23.5890893889       14.7634506831
  H        25.7154767594        8.5895795115       11.3959668006
  H        30.8801275585       22.6964558743        3.9387264950
  H        31.8889957166       24.5715285009        2.6407925202
  H        35.5334540891       24.1513310808        4.8870922866
  H        34.5061029976       22.2832012034        6.1878030091
  H        33.5891371650       23.5801483966        1.2122219063
  H        40.5952459441       17.0803074188        4.6537239612
  H        32.5133319221       14.1531825020        8.2404334491
  H        29.8903614348       12.4869289496        3.9195290362
  H        28.8504662269       10.5886417391        2.6754372642
  H        25.1770608715       11.2012095428        4.8258073845
  H        26.2361816196       13.0904130152        6.0773611407
  H        27.1603527974       11.6794022205        1.2353188169
  H        33.2960644775       14.1993333829        6.4271847108
  H        33.4070074675       14.3913395575        9.6000129479
  H        32.0418320084       18.5131105638        5.0870471413
  H        30.1941470605       14.1416326023        8.0787105929
  H        16.1180962005        2.9629263620       12.1295543511
  H        14.9526268109        4.8198666509       13.3222513257
  H        17.3656636925        7.6857093082       11.2103466509
  H        18.5146322979        5.8183264013       10.0105550608
  H        16.7528880985        5.7391618361       14.7714852613
  H        44.8276657637       32.1401902359       11.9772175159
  H        45.9369084413       30.3412912735       13.3066929713
  H        43.6825245275       27.3780635791       11.1521112411
  H        42.5998843383       29.1899705589        9.8094454176
  H        44.2299701704       29.4365487530       14.7688863015
  H        14.8504361924        8.5457454499       11.3632761587
  H        44.8997564370       32.2339215893        3.9318702629
  H        46.0245089083       30.4128480861        2.6522539041
  H        43.7630790976       27.4839778369        4.8452517746
  H        42.6454131981       29.3176955364        6.1243995769
  H        44.2681153317       29.4703199627        1.2181674100
  H        35.0014252143       26.6334964714        4.6493584699
  H        36.6052694673       35.1339853664        8.1805706396
  H        16.1433804430        3.0127155563        3.9041488848
  H        14.9736244585        4.8560260090        2.6884826154
  H        17.3958312601        7.7470741205        4.7548863226
  H        18.5430161951        5.8932370669        5.9824860070
  H        16.7641056264        5.7551820895        1.2192287012
  H        36.2789105435       34.4820445196        6.2734007869
  H        36.3809445128       34.2089329399        9.4995017148
  H        40.5790393882       33.2017961115        5.1542442639
  H        17.4707294997        1.9472923080        7.9740250722
  H        29.2139464063       19.4998592753       12.5208688025
  H        29.0548115176       19.3148154412        3.5475429115
  H        30.7583443731       15.4594585129        3.7241169320
  H        32.3134357187       16.5356571850       12.2658008802
  H        28.1233520526       18.2344668604       14.5850727275
  H        30.5886567588       15.2735264864       14.0923191760
  H        18.8530486216        0.8687845146       12.3350978638
  H        40.5283320302       35.2290690520        3.9521462111
  H        42.3234470825       34.4184054702        3.5907068419
  H        22.0872761910        0.6922895226       12.3513939208
  H        11.5968625043       18.7125553479       12.3825519526
  H        52.2647474679       18.4313662795        3.6774688302
  H        49.2552405511       16.4766027579        3.5842320407
  H        10.1498914888       15.7983563199       12.2928886842
  H        50.8499987133       17.6925359316        3.9540718687
  H        10.0457888160       17.3946976642       12.0519549544
  H        20.2143482851        0.0020062594       12.0419902976
  H        39.1838426201       36.1244855709        3.6863858587
 Ni        30.4777780319       17.5882785501        2.5846881364
 Ni        29.9730020103       16.3261073231        0.3381193041
 Ni        29.6795377599       18.5529980245        0.4124546243
 Ni        30.1783216913       17.5175991059       13.2419665201
  O        10.6498858767       14.3651488564        5.4858273022
  O        12.6131170067       14.6573483077        6.5838695912
  O        49.1476781816       16.8458942738        7.9897612275
  O        50.3501213022       20.9361842342        5.6482077852
  O        48.3484779796       20.5932742814        6.6659627482
  O        11.0510285694       17.0540548693        6.5007197382
  O        50.3208433514       20.8817002917       10.4068849430
  O        48.3466477302       20.5867142400        9.3271136080
  O        49.5433905224       18.2484524185       10.0683215293
  O        12.3588470384       18.6247214411        7.9997601966
  O        48.6931601471       14.1486432485        6.7512889861
  O         8.2098488216       14.2104424134        9.3225425153
  O        10.7352872241       14.5067691418       10.6643742209
  O        12.5717120279       14.5827065248        9.3285627624
  O        22.8441252651        2.0423376392        5.4875339753
  O        21.6045520777        3.5916312472        6.5902779199
  O        42.0579392874       34.1370751160        7.9789986701
  O        37.9813476590       33.1367450356        5.5724249107
  O        39.2172686468       31.5751599194        6.6656667076
  O        20.3083316594        1.0394582703        6.5018932803
  O        38.0240573814       33.1843455826       10.4158847719
  O        39.2181510550       31.5826917630        9.3276649016
  O        40.6520971680       33.7690251696       10.0601858022
  O        18.2555844498        1.3763591306        7.9967406885
  O        44.6222516940       35.1005101578        6.7588135377
  O        24.2054237409       -0.0000599739        9.3207915841
  O        22.7527498498        2.0567382566       10.5831196316
  O        21.6237902686        3.5952132406        9.3414702104
  O        27.4575755636       18.6947415956        5.4918895669
  O        26.6942381696       16.9124114191        6.6700146954
  O        30.6249739845       19.3493519964        7.9985600092
  O        33.5426533542       16.3382062886        5.5879628402
  O        34.2669937231       18.1697395558        6.7329640540
  O        29.5367219601       17.0070189795        6.5709151611
  O        33.5574020865       16.3432756337       10.4158599501
  O        34.2977708521       18.2400249798        9.3987018328
  O        31.6491375128       18.3214684161       10.0733382277
  O        30.2933564173       15.1071475477        8.0749327867
  O        28.5490200239       21.0255080384        6.8284790975
  O        28.5129986933       20.9520973354        9.4020934624
  O        27.4584456008       18.6795335605       10.6566507830
  O        26.6919998025       16.9265489867        9.4165086000
  O        13.1475458628       18.6934108662       10.5865987535
  O        13.9180604614       16.9158839710        9.4040035843
  O        50.5959488455       19.3502609132        8.0208252094
  O        47.6826927262       16.3270836602       10.4173102112
  O        46.9506922797       18.1757061947        9.3252129393
  O        11.0690700488       17.0159297353        9.4896879299
  O        47.6750345135       16.3358980068        5.6528103789
  O        46.9256925794       18.2359791729        6.6636387662
  O        49.5687972755       18.3177752380        5.9823560878
  O        10.3186219339       15.1001572697        7.9971167552
  O        52.6707447506       21.0279657229        9.2418274902
  O        12.1468229999       20.8913876227        6.6733212986
  O        13.1053325893       18.6141171617        5.3261812898
  O        13.9548932604       16.9862837232        6.6658099920
  O        29.9887040365       14.4443721182       10.7305450247
  O        28.0849042527       14.6515322930        9.4963666248
  O        32.0722268274       16.8537631036        8.0190892216
  O        30.9630646902       20.9466220806       10.4048140634
  O        32.9441548699       20.5972353502        9.3309954733
  O        29.5600188146       17.0670964064        9.5738621723
  O        30.8432329827       20.8817650865        5.6535681818
  O        32.8642618247       20.5827130457        6.6601672881
  O        31.6092628377       18.2423609034        5.9130771489
  O        28.2546078865       18.6253157755        8.0636121742
  O        32.4911784576       14.2123168523        9.3203181039
  O        32.4046935352       14.2194109295        6.8137786622
  O        29.9031777449       14.4371320607        5.4194601094
  O        28.0455738760       14.5790054593        6.7352997304
  O        17.8891522679        1.9664779643       10.6628362955
  O        18.9561096836        3.5271190715        9.4080769121
  O        39.1684480104       34.1386064118        7.9971466559
  O        43.2801765639       33.0588666642       10.3316789320
  O        42.0343452624       31.5064501557        9.2415975355
  O        20.3172680997        1.0362821018        9.4803070766
  O        43.2760668785       33.1824496759        5.5748966995
  O        42.0051772699       31.5840762665        6.5830284411
  O        40.5790485450       33.7750519036        5.9359538737
  O        22.3671097334        1.3843130733        7.9979576964
  O        36.6727785220       35.0996418163        9.2332973968
  O        16.4456058500        0.0641533826        6.6683122056
  O        17.9363811076        2.0432110956        5.3264127037
  O        18.9188415150        3.5931187504        6.6658592493
  O        29.7039021694       18.7550065718        4.0072010183
  O        29.7898040993       18.9073767192       12.0010071457
  O        31.2183091038       16.2727366767        4.0010304523
  O        31.3857944565       16.4112924457       12.0015640632
  O        30.1666605120       16.0576238144       14.4859951665
  O        29.0189260708       18.6103565456       14.6508045665
  O        39.4569566821       35.2438675604        4.0019795555
  O        19.1409878560        0.0042426952       11.9905606294
  O        41.9695750385       35.1726700704        4.0871056283
  O        21.6911352827       -0.0693414380       11.8958711254
  O        51.3647988990       18.6143359784        4.0053075539
  O        10.7510545201       18.7471817587       11.9050482163
  O        50.0795698954       16.4127261457        4.0916899692
  O         9.5240562214       16.4831852915       11.9912287835
 Zr         9.2969384261       16.0528238619        6.1822538882
 Zr        49.8364400759       16.0068810251        9.7466018573
 Zr        22.0732820166        0.0296197862        6.1891300971
 Zr        42.4607963279       35.1533296797        9.8009027508
 Zr        29.5513213082       19.0231037919        6.2273800126
 Zr        29.5664581285       19.1712228137        9.8136696324
 Zr        11.0378929293       19.0522841583        9.8279137052
 Zr        11.0436721531       19.1551029921        6.2512401123
 Zr        31.3320681101       16.0902295629        9.8467637737
 Zr        31.3636499021       15.9959144156        6.2148182478
 Zr        18.6009283787       -0.0018160009        9.7635156607
 Zr        18.5066361450       -0.0077649240        6.2134931537
 Zr        12.3013508582       16.3232945335        7.9906028433
 Zr        48.6164192192       18.8330259438        8.0102763818
 Zr        20.3145932492        2.4731216785        7.9905810869
 Zr        40.6429094076       32.6868192606        7.9781637339
 Zr        28.3232325969       16.3101538938        8.0855515398
 Zr        32.6005483680       18.8253860717        8.0169357141
  H        29.6614077023       16.2361164265        1.8777165984
  H        30.5821627188       18.9675835610        1.6253681815
