     566
 i =      170, E =     -4712.2299045275
  C        11.8585961107       14.0534672682        5.7415541623
  C        12.4556753239       12.8902906905        5.0231185093
  C        11.7029890643       12.1702959426        4.0830613281
  C        12.2788452138       11.1077477028        3.3907821554
  C        13.6198879928       10.7387348826        3.6170056485
  C        14.3541443205       11.4435298210        4.5887541863
  C        13.7817837940       12.5088710782        5.2801755437
  C        14.2589718541        9.6477864039        2.8435903333
  C        14.2533644506        9.6551472134        1.4218865338
  C        13.7389716056       10.7566569844        0.6679220671
  C        49.1266066089       21.2333678879        5.8797431828
  C        48.5496597937       22.4013143285        5.1527318588
  C        49.2996909152       23.0686996933        4.1717949633
  C        48.7327057278       24.1077563152        3.4385312723
  C        47.4020996906       24.5092096904        3.6670370620
  C        46.6711167588       23.8602599419        4.6804716314
  C        47.2336348477       22.8154158900        5.4098729903
  C        46.7718480654       25.5868689409        2.8697404702
  C        46.7608520026       25.5572353722        1.4479845178
  C        47.2608559501       24.4421681411        0.7044958156
  C        14.8576504007        8.5690092674        0.7085942551
  C        14.8904509622        8.5962462080        3.5202050975
  C        49.1130482114       21.2033787198       10.1453721100
  C        48.5275499807       22.3648108788       10.8724590145
  C        49.2667316194       23.0255723338       11.8653595596
  C        48.6903555798       24.0600941537       12.5968334362
  C        47.3599189915       24.4567791457       12.3586159276
  C        46.6395696263       23.8118908378       11.3350431326
  C        47.2131894918       22.7760131286       10.6032553996
  C        46.7214308290       25.5317104632       13.1496495748
  C        46.7330994484       25.5280524483       14.5713503914
  C        47.2485798978       24.4288568427       15.3277339490
  C        40.6214163315       17.0884037834       15.3118182188
  C        40.6348377081       17.1183331607       12.5016169959
  C        11.8827028471       14.0863044511       10.2854608186
  C        12.4714031147       12.9101348823       10.9897131261
  C        11.7128364897       12.1761220241       11.9143308965
  C        12.2787571469       11.0932704884       12.5827018592
  C        13.6179199867       10.7199551944       12.3522390493
  C        14.3570041861       11.4364370975       11.3929780617
  C        13.7922727652       12.5180303881       10.7203442971
  C        14.2510186142        9.6229211065       13.1227134694
  C        14.2491452030        9.6425770856       14.5445610152
  C        13.7382084506       10.7510221995       15.2916596970
  C        22.5087647257        3.2431804912        5.7518840227
  C        23.2177490886        4.3478502506        5.0477205019
  C        24.2127458048        4.0671781175        4.0999007327
  C        24.8352810542        5.1064698800        3.4140538366
  C        24.4774235197        6.4474855223        3.6561393499
  C        23.5099358256        6.7197449193        4.6402874616
  C        22.8830980171        5.6823304679        5.3248837203
  C        25.0818062461        7.5532436506        2.8801985913
  C        25.0621309372        7.5434211407        1.4589044719
  C        24.3635079490        6.5429595831        0.7112458132
  C        38.2980847159       31.9279962134        5.8517904566
  C        37.5561088719       30.8399081153        5.1501151068
  C        36.5900082828       31.1483764599        4.1798235844
  C        35.9582084360       30.1316624215        3.4688712498
  C        36.2769994672       28.7797873070        3.7044577504
  C        37.2127947354       28.4787449109        4.7122450860
  C        37.8485264228       29.4945017147        5.4228301324
  C        35.6638350368       27.6930695739        2.9056903534
  C        35.7006689015       27.7089686252        1.4838451782
  C        36.4150551053       28.7082916066        0.7503527289
  C        25.6895402928        8.6118602705        0.7408024235
  C        25.6733801217        8.6298587041        3.5523826293
  C        38.3299642142       31.9602158909       10.1605145161
  C        37.6124944679       30.8873131041       10.9099850807
  C        36.6781716656       31.1975301261       11.9104442563
  C        36.0666729287       30.1812951492       12.6428793704
  C        36.3740219080       28.8272150389       12.3999936357
  C        37.2895633739       28.5268849143       11.3723920476
  C        37.9027653996       29.5397296925       10.6408252992
  C        35.7565567799       27.7299299351       13.1821728838
  C        35.7480125857       27.7277886487       14.6049686160
  C        36.4360362611       28.7184580816       15.3737299939
  C        46.1350323404       26.6206627854       15.2814754827
  C        46.0874702068       26.5800570166       12.4735940400
  C        22.4610874084        3.2541335385       10.2550634495
  C        23.1576397016        4.3616526590       10.9746319388
  C        24.1635949796        4.0736775267       11.9104248463
  C        24.7938874406        5.1030496673       12.6045069139
  C        24.4372525605        6.4482604639       12.3845110859
  C        23.4548504290        6.7297027296       11.4167055762
  C        22.8200750675        5.7005660206       10.7228369966
  C        25.0680881934        7.5444706174       13.1591437671
  C        25.0560929686        7.5380899110       14.5812269693
  C        24.3583651616        6.5418335686       15.3345679897
  C        26.5635601346       17.8266486832        5.7942973445
  C        25.2598200043       17.8863650181        5.0782919127
  C        25.0429822704       18.8171409046        4.0491237441
  C        23.8390040038       18.8279928910        3.3544633240
  C        22.8033173479       17.9215830014        3.6784676659
  C        23.0131287918       17.0286303323        4.7515912073
  C        24.2261084285       17.0022110147        5.4306907817
  C        21.5473595451       17.8871892700        2.9188786511
  C        21.5559916973       17.8922463103        1.4624087134
  C        22.7366526826       17.7179098704        0.7276292842
  C        34.4171092713       17.2199329263        5.8884110790
  C        35.7171917372       17.1607167354        5.1574888053
  C        35.9193321281       16.1901070666        4.1638740545
  C        37.1049955925       16.1653024889        3.4354456670
  C        38.1193851573       17.1123327613        3.6770174696
  C        37.9203097729       18.0621346164        4.6972165076
  C        36.7331770622       18.0900410614        5.4262143919
  C        39.3735543290       17.1145958286        2.8896887676
  C        39.3671400722       17.1179399726        1.4673328477
  C        38.1588419775       17.2330810577        0.7099911388
  C        20.3129394821       17.9522436798        0.7509115575
  C        20.3208112055       17.8533995398        3.5896059380
  C        34.4458431642       17.2442997164       10.1807941652
  C        35.7472702587       17.1463231354       10.9046271274
  C        35.9684484332       16.1460948293       11.8636131183
  C        37.1563173658       16.1190199941       12.5904709097
  C        38.1552668868       17.0882903784       12.3747965417
  C        37.9426645512       18.0609470077       11.3799805472
  C        36.7526023733       18.0948923131       10.6588570864
  C        39.4047733235       17.1007497587       13.1686718142
  C        39.3831060268       17.1086165110       14.5899128010
  C        38.1663291766       17.2249502471       15.3331183575
  C        35.1049367129       26.6531592174       15.3056599818
  C        35.1732672996       26.6566923726       12.4958594487
  C        26.5702228257       17.8288226384       10.3229214547
  C        25.2540588673       17.8793618825       11.0174405443
  C        25.0175469592       18.8234392657       12.0296232125
  C        23.8036984655       18.8343084466       12.7053586991
  C        22.7823426264       17.9128100268       12.3794257377
  C        23.0105454863       17.0085910499       11.3209872552
  C        24.2329685848       16.9841187298       10.6588156114
  C        21.5265193940       17.8714142401       13.1362757076
  C        21.5451085339       17.8834029892       14.5915607542
  C        22.7309556139       17.7138857621       15.3200023276
  C        14.0473320522       17.8346333531       10.2795574987
  C        15.3565274102       17.9031019699       10.9837874450
  C        15.5897152229       18.8561861999       11.9893261547
  C        16.7963186065       18.8664349598       12.6800712945
  C        17.8178251897       17.9367220387       12.3770808107
  C        17.5939790154       17.0247327133       11.3226156091
  C        16.3794447225       16.9997273509       10.6468114517
  C        19.0721745992       17.8925621544       13.1391271615
  C        19.0629977039       17.9166403236       14.5956459212
  C        17.8781036417       17.7860232100       15.3323771778
  C        46.8033421953       17.2170652946       10.1574849171
  C        45.5108415456       17.1494380092       10.8997822810
  C        45.3044378822       16.1654831350       11.8791630362
  C        44.1210576180       16.1401419987       12.6125274710
  C        43.1135068643       17.0989282490       12.3893676009
  C        43.3168722611       18.0622609179       11.3827028190
  C        44.5009936626       18.0912332868       10.6498906850
  C        41.8601107973       17.1040325434       13.1787450810
  C        41.8672486499       17.1019453735       14.6010364202
  C        43.0770575634       17.1973218859       15.3584871063
  C        20.3069108367       17.9469660666       15.3078201075
  C        20.2985215302       17.8259617154       12.4696274717
  C        46.7843604911       17.2320415184        5.8873032783
  C        45.4817338271       17.1265523971        5.1689294595
  C        45.2626934458       16.1249150800        4.2108814232
  C        44.0750009657       16.0959404865        3.4837558578
  C        43.0760311819       17.0658302523        3.6967694264
  C        43.2859722490       18.0383157143        4.6924345227
  C        44.4746345599       18.0732986462        5.4150338952
  C        41.8285989393       17.0843174622        2.9004260834
  C        41.8512366802       17.0910303718        1.4790767763
  C        43.0693875344       17.1892774033        0.7354493949
  C        46.1528302714       26.6371000998        0.7262262449
  C        46.1619280199       26.6559997352        3.5358544315
  C        14.0419128500       17.8339008318        5.7127177577
  C        15.3596971747       17.9130150885        5.0287086229
  C        15.5983809033       18.8690369477        4.0284247870
  C        16.8177347753       18.8926707215        3.3623118261
  C        17.8390442434       17.9690408668        3.6823492873
  C        17.6103558887       17.0579413182        4.7352687053
  C        16.3857100933       17.0237151332        5.3907487301
  C        19.0930573752       17.9192361763        2.9236713217
  C        19.0736669301       17.9281896954        1.4681465873
  C        17.8836034894       17.7907600553        0.7399734527
  C        28.8076695458       14.0868242923       10.3929001536
  C        28.1977017983       12.9086317708       11.0725579590
  C        28.9278578692       12.1592206310       12.0064947884
  C        28.3306890081       11.0835078193       12.6583264764
  C        26.9903559372       10.7341271626       12.3980601158
  C        26.2823531805       11.4624101579       11.4256104408
  C        26.8770682566       12.5388340467       10.7729205850
  C        26.3220718321        9.6543931481       13.1590480642
  C        26.3069251402        9.6810364126       14.5796123166
  C        26.8114543167       10.7934001886       15.3252498045
  C        32.1795977214       21.2366978991       10.1403686773
  C        32.7741321444       22.4017696051       10.8634028049
  C        32.0176629254       23.0904680316       11.8247031912
  C        32.5838342114       24.1311605316       12.5549733558
  C        33.9235112073       24.5131071910       12.3468580332
  C        34.6632418521       23.8431627504       11.3537201408
  C        34.0990001971       22.7972564047       10.6245961032
  C        34.5458286216       25.5910248921       13.1513179533
  C        34.5172397716       25.5694352731       14.5735477615
  C        33.9922986456       24.4607248348       15.3101068703
  C        25.6919309860        8.6051269947       15.2966814065
  C        25.6855408119        8.6053603971       12.4839867439
  C        32.0670398907       21.1992826829        5.8749283519
  C        32.6351180748       22.3686767726        5.1381920206
  C        31.8964773793       23.0271684746        4.1429863848
  C        32.4677624237       24.0679281264        3.4124363927
  C        33.7924390399       24.4815527471        3.6572852570
  C        34.5118874727       23.8385569142        4.6832158722
  C        33.9456915859       22.7940198046        5.4089214201
  C        34.4332798614       25.5661071274        2.8753195337
  C        34.4581301785       25.5575488392        1.4526833871
  C        33.9625623320       24.4555622009        0.6868646249
  C        40.6127919609       17.0880634476        0.7569337166
  C        40.5984557419       17.1138598106        3.5670022931
  C        28.7324687376       14.0643715541        5.7851112431
  C        28.1153579782       12.9192257866        5.0555709254
  C        28.8539114149       12.2042423373        4.1001581210
  C        28.2693850970       11.1473290776        3.4083976840
  C        26.9305543058       10.7794546951        3.6476040257
  C        26.2087495147       11.4799854023        4.6316429900
  C        26.7919460613       12.5380256774        5.3258487625
  C        26.2890745515        9.6897845531        2.8757002727
  C        26.2902794543        9.7000463956        1.4542745526
  C        26.8006517904       10.8039497116        0.7011608791
  C        18.1351772434        3.1808235519       10.3171574388
  C        17.4054668458        4.2778221278       11.0157199157
  C        16.3898425591        3.9990322515       11.9432158455
  C        15.7416787675        5.0387254160       12.6067118451
  C        16.0929967035        6.3826009888       12.3670362367
  C        17.0822390681        6.6525502806       11.4032428802
  C        17.7317809913        5.6154844043       10.7381870010
  C        15.4681299508        7.4899725799       13.1300932079
  C        15.4832588654        7.4892120974       14.5518113856
  C        16.1853036972        6.4959326793       15.3049656388
  C        42.9457030863       31.8594539703       10.0728681768
  C        43.6460054528       30.7717548158       10.8167885758
  C        44.5913832526       31.0930677312       11.8030018646
  C        45.1969901851       30.0875028379       12.5507037117
  C        44.8706646593       28.7344427543       12.3356717168
  C        43.9450662552       28.4201176481       11.3222468419
  C        43.3363447490       29.4252779431       10.5741661335
  C        45.4881646806       27.6551246504       13.1388656683
  C        45.4923149746       27.6807755012       14.5605515192
  C        44.8051673730       28.6887849053       15.3071725610
  C        14.8536722565        8.5613642543       15.2641485470
  C        14.8727393571        8.5616632917       12.4514755440
  C        42.9463626353       31.9615374851        5.8090362770
  C        43.6915261544       30.8853865142        5.0955547134
  C        44.6560318332       31.1912818426        4.1231635011
  C        45.2774605944       30.1716825563        3.4053891110
  C        44.9536711892       28.8213772647        3.6430692272
  C        44.0202983142       28.5237212682        4.6539487005
  C        43.3921201406       29.5405019240        5.3661713452
  C        45.5626370418       27.7239846545        2.8577907230
  C        45.5328415212       27.7172493601        1.4365039082
  C        44.8264594809       28.7074435174        0.6835637870
  C        35.0777811198       26.6453946586        0.7514308576
  C        35.0481509272       26.6210346434        3.5621556574
  C        18.1483321909        3.2468615582        5.7065847844
  C        17.4295159852        4.3435362292        4.9972879624
  C        16.4142873048        4.0520250478        4.0738157294
  C        15.7657331641        5.0824989591        3.3984353259
  C        16.1201363363        6.4278238157        3.6210637316
  C        17.1115598406        6.7114411350        4.5782065597
  C        17.7594705806        5.6826839877        5.2579869788
  C        15.4892248621        7.5232757540        2.8486189372
  C        15.4946280899        7.5063523553        1.4274812402
  C        16.1916817340        6.5048581833        0.6807792186
  H        10.6704697722       12.4638282792        3.9073229463
  H        11.6917953852       10.5483700085        2.6655432755
  H        15.3916040396       11.1696568223        4.7691282877
  H        14.3520902137       13.0733306783        6.0140089537
  H        13.3710355735       11.6283701544        1.2012694782
  H        50.3224742066       22.7487893092        3.9872547772
  H        49.3191795137       24.6231360306        2.6810233612
  H        45.6415791068       24.1609321610        4.8635545028
  H        46.6626689967       22.2900822578        6.1719414091
  H        47.6294163268       23.5758207233        1.2462149829
  H        14.8714275333        8.5879000093        4.6085264916
  H        50.2868049893       22.7027509617       12.0601770533
  H        49.2687141101       24.5755786694       13.3603441558
  H        45.6101647875       24.1091275208       11.1459658188
  H        46.6524372676       22.2538538587        9.8316373992
  H        47.6074370341       23.5517752192       14.7968260434
  H        40.6394252766       17.0901751024       11.4136196880
  H        48.6871381573       14.0951322439        7.8000736039
  H        10.6790925690       12.4649264352       12.0905959287
  H        11.6861703521       10.5222019556       13.2942011729
  H        15.3927782428       11.1589917495       11.2082930033
  H        14.3655476612       13.0884310482        9.9933599155
  H        13.3703491366       11.6191511051       14.7529459706
  H        47.9300611440       14.2188791329        9.7106486720
  H        47.7800320379       14.3745345804        6.4955760005
  H        49.0824742772       18.5521334979       10.8670277801
  H        10.4156775383       14.1342061175        7.9988207413
  H        24.4758612939        3.0286590849        3.9118459693
  H        25.6079681670        4.8900042899        2.6795674942
  H        23.2269742211        7.7525827883        4.8325315339
  H        22.1140283937        5.8817130718        6.0670639715
  H        23.7996782985        5.7871083509        1.2501523213
  H        36.3589320667       32.1928644226        3.9844575238
  H        35.2098816340       30.3761414501        2.7181426629
  H        37.4673266407       27.4381676150        4.9028545504
  H        38.5962705640       29.2680605415        6.1793154838
  H        36.9784020506       29.4569582382        1.2996478169
  H        25.7022014779        8.6153699611        4.6403964192
  H        36.4501105767       32.2419781672       12.1109270191
  H        35.3355893134       30.4298188222       13.4090640766
  H        37.5415107843       27.4865416411       11.1774132941
  H        38.6298766248       29.3104476075        9.8655558580
  H        37.0163073956       29.4746033687       14.8526975844
  H        46.1089300777       26.5874672652       11.3855594603
  H        44.6682084922       35.1161823158        7.8140704397
  H        24.4412991441        3.0350797335       12.0750681468
  H        25.5773213238        4.8748188355       13.3240149781
  H        23.1694759114        7.7645955300       11.2391862933
  H        22.0452796764        5.9129862213        9.9898356734
  H        23.7899659576        5.7856536506       14.8009214629
  H        44.9535816597       34.3899782179        9.6948661730
  H        44.9018299910       34.2067597469        6.4907407780
  H        40.6659987492       33.2087744158       10.8531071508
  H        23.1500688417        1.9577106728        8.0044469086
  H        25.8335574366       19.5237919432        3.8084457614
  H        23.6766838245       19.5533797264        2.5606146678
  H        22.2289742363       16.3200255765        5.0098229158
  H        24.4054641590       16.2890693155        6.2317388515
  H        23.6727764739       17.5509768176        1.2519811202
  H        35.1278298554       15.4698234167        3.9706588421
  H        37.2605715218       15.4043474526        2.6738630673
  H        38.6950677269       18.8017676790        4.8885256813
  H        36.5637629238       18.8382620561        6.1971598163
  H        37.2196602538       17.3600465928        1.2408107425
  H        20.3228175879       17.8772677836        4.6779900444
  H        35.1954555418       15.4003726921       12.0350628881
  H        37.3243061298       15.3416239903       13.3326886268
  H        38.7076440912       18.8151069535       11.2069960578
  H        36.5681501085       18.8639130962        9.9125622965
  H        37.2328125239       17.3440588172       14.7906637139
  H        35.1607430768       26.6779542885       11.4077533743
  H        28.4888526402       21.0778722592        7.8799753244
  H        25.8005511380       19.5399017423       12.2674440486
  H        23.6223913862       19.5681098441       13.4872947262
  H        22.2351271507       16.2903408746       11.0630030642
  H        24.4295975280       16.2638183727        9.8684310182
  H        23.6628723613       17.5442927217       14.7894951843
  H        29.0220130974       21.7130760528        9.7299006945
  H        29.2293008002       21.6751885140        6.5699940728
  H        32.0822549707       18.6234949001       10.8942318386
  H        27.3616266482       19.0125663145        8.0765698607
  H        14.8105326142       19.5805989766       12.2152748738
  H        16.9706458117       19.6083904936       13.4559359606
  H        18.3676531742       16.2997099062       11.0787418082
  H        16.1895474822       16.2714773775        9.8620151898
  H        16.9368325751       17.6439805717       14.8101899189
  H        46.0887335205       15.4340312538       12.0592749331
  H        43.9627142619       15.3694536266       13.3637277605
  H        42.5475696268       18.8110012459       11.2054492994
  H        44.6736004171       18.8495623607        9.8897138214
  H        44.0182621263       17.3096473272       14.8279854310
  H        20.2979997417       17.8418361156       11.3810784602
  H        46.0388325965       15.3829134198        4.0376866929
  H        43.9085379809       15.3177768714        2.7420176942
  H        42.5204215071       18.7922367318        4.8637059432
  H        44.6569136987       18.8428402491        6.1611625533
  H        44.0049600029       17.2941623714        1.2772286892
  H        46.1988137555       26.6825496906        4.6232975450
  H        52.7410412947       21.0628239388        8.1945592137
  H        14.8148669524       19.5848029763        3.7903276988
  H        17.0011226293       19.6358519249        2.5897833426
  H        18.3865495446       16.3395290010        4.9902725246
  H        16.1882383636       16.2971166389        6.1749798989
  H        16.9463018603       17.6511411861        1.2695530791
  H        52.3230575409       21.6738998389        6.2944634766
  H        52.0134006355       21.7025388165        9.4954564681
  H        49.0670947112       18.6080704114        5.2044814275
  H        13.2468018152       19.0173058488        7.9767885918
  H        29.9603972287       12.4371588205       12.2059192558
  H        28.8960660398       10.5011021990       13.3826354437
  H        25.2466843530       11.2009352116       11.2185684037
  H        26.3281705572       13.1244949896       10.0396681255
  H        27.1798783068       11.6604145063       14.7850141699
  H        30.9876861119       22.7861559881       11.9938245731
  H        31.9902078465       24.6633396516       13.2950710828
  H        35.7000560467       24.1274787167       11.1857909874
  H        34.6765718326       22.2571725215        9.8777886241
  H        33.6376812847       23.5919225053       14.7630194720
  H        25.7164122291        8.5868834684       11.3960172035
  H        30.8775796438       22.7024751254        3.9449155634
  H        31.8866390716       24.5766842560        2.6463449826
  H        35.5370696561       24.1450298361        4.8805178566
  H        34.5099592474       22.2764964082        6.1810306010
  H        33.5850831469       23.5825265892        1.2117713523
  H        40.5931040184       17.0829607508        4.6549018300
  H        32.5155124907       14.1489523703        8.2498678281
  H        29.8887807320       12.4858071168        3.9205708879
  H        28.8481051219       10.5880779388        2.6764941437
  H        25.1727876696       11.2069349111        4.8217415053
  H        26.2325350695       13.0964841650        6.0726362883
  H        27.1590764917       11.6797414463        1.2343767222
  H        33.2960248626       14.1975789360        6.4278472215
  H        33.4066216581       14.3963383486        9.6043358195
  H        32.0549308880       18.5095740076        5.1090475057
  H        30.1949072414       14.1387246888        8.0774174750
  H        16.1182303127        2.9624098678       12.1296004411
  H        14.9523278753        4.8190110721       13.3223783064
  H        17.3642168110        7.6855481755       11.2101199523
  H        18.5136907501        5.8184765971       10.0102943123
  H        16.7522073760        5.7388511865       14.7714672796
  H        44.8275484708       32.1401574881       11.9773010668
  H        45.9366976154       30.3412205141       13.3068112254
  H        43.6824975126       27.3780426781       11.1519826370
  H        42.5999352528       29.1899802219        9.8092895192
  H        44.2297561772       29.4365052128       14.7688665711
  H        14.8494259935        8.5451763277       11.3632412338
  H        44.8995602657       32.2339616450        3.9316935339
  H        46.0242840416       30.4128785964        2.6520604473
  H        43.7633385542       27.4839943531        4.8455320832
  H        42.6456854162       29.3177152300        6.1246829998
  H        44.2679254173       29.4703152552        1.2181443572
  H        35.0030328462       26.6321212224        4.6495735098
  H        36.6052776127       35.1339769910        8.1805601786
  H        16.1433741892        3.0123877434        3.9041888317
  H        14.9733804760        4.8554823394        2.6884381304
  H        17.3948912007        7.7469670523        4.7550370197
  H        18.5423444856        5.8933226315        5.9826978580
  H        16.7635858854        5.7549578447        1.2191905659
  H        36.2789033558       34.4820429231        6.2734171038
  H        36.3809840696       34.2089341587        9.4994721545
  H        40.5791196098       33.2018329517        5.1541352642
  H        17.4706840851        1.9472832329        7.9740382570
  H        29.1749159745       19.4630180641       12.5161163401
  H        29.1221179648       19.3700455570        3.5831336255
  H        30.7851279180       15.4307028031        3.8088521195
  H        32.3150262790       16.5469963049       12.2680664396
  H        28.1228231759       18.0832242482       14.5737975044
  H        30.7408624124       15.3370257542       14.1748182312
  H        18.8530424741        0.8687814494       12.3351145116
  H        40.5283111929       35.2290233611        3.9521487244
  H        42.3234522867       34.4183456832        3.5907432305
  H        22.0873040169        0.6922031397       12.3514401526
  H        11.5976950293       18.7101547432       12.3809265293
  H        52.2657819635       18.4279850575        3.6817668769
  H        49.2548399168       16.4764349709        3.5846424693
  H        10.1504154539       15.7983323327       12.2918407398
  H        50.8489954272       17.6928118455        3.9543605137
  H        10.0456351400       17.3948265332       12.0517126679
  H        20.2143401806        0.0020008244       12.0420022630
  H        39.1838356668       36.1244769693        3.6864173669
 Ni        30.4360122048       17.5245585817        2.7456654738
 Ni        30.0980737424       16.2966930950        0.4207473772
 Ni        29.7178466371       18.4846290565        0.3335022617
 Ni        30.1795920738       17.5152013256       13.2420620223
  O        10.6497962226       14.3652078300        5.4857482092
  O        12.6129889931       14.6571969726        6.5838505484
  O        49.1475110679       16.8458457385        7.9896986514
  O        50.3500337887       20.9363447527        5.6481156117
  O        48.3484575923       20.5933077596        6.6659510721
  O        11.0506956375       17.0541812838        6.5006983914
  O        50.3207455713       20.8817321149       10.4070037583
  O        48.3466127101       20.5867275003        9.3271102509
  O        49.5433823734       18.2484723243       10.0683317654
  O        12.3586551858       18.6249109670        7.9997714602
  O        48.6931264484       14.1486059753        6.7512886526
  O         8.2098348946       14.2103713061        9.3225256215
  O        10.7351709914       14.5067982804       10.6644655726
  O        12.5716182616       14.5824401655        9.3286373382
  O        22.8441123036        2.0424533148        5.4874831295
  O        21.6044110369        3.5915723231        6.5903436110
  O        42.0579440025       34.1370718647        7.9789728595
  O        37.9813071988       33.1367366068        5.5724367861
  O        39.2172851145       31.5751482406        6.6656845081
  O        20.3083359956        1.0394707465        6.5018628174
  O        38.0241419284       33.1844933415       10.4158521959
  O        39.2181652642       31.5827255874        9.3276711437
  O        40.6520812389       33.7690263682       10.0601880870
  O        18.2555455653        1.3763619204        7.9967446737
  O        44.6222427553       35.1005064946        6.7588022291
  O        24.2054470731       -0.0000891985        9.3207729677
  O        22.7526875322        2.0565308586       10.5830516378
  O        21.6237577534        3.5951536686        9.3414183152
  O        27.4567310056       18.6947886032        5.4949026173
  O        26.6948647084       16.9111588145        6.6741690535
  O        30.6271560835       19.3513759115        8.0067137341
  O        33.5436674914       16.3373064499        5.5957411940
  O        34.2668845092       18.1704245681        6.7368675728
  O        29.5347396360       17.0061461819        6.5761727069
  O        33.5588114517       16.3432370483       10.4192548059
  O        34.2989180828       18.2403031937        9.4015457642
  O        31.6489396811       18.3236253885       10.0798358441
  O        30.2928571475       15.1043542908        8.0788660777
  O        28.5483355116       21.0268928844        6.8315352857
  O        28.5131131591       20.9522537280        9.4017015114
  O        27.4584854862       18.6793383495       10.6576969353
  O        26.6923195792       16.9266223212        9.4152323462
  O        13.1463193047       18.6934099213       10.5869332944
  O        13.9170110343       16.9157470384        9.4018016910
  O        50.5959344738       19.3503289137        8.0208427332
  O        47.6828593458       16.3270320430       10.4173111887
  O        46.9506673168       18.1757047783        9.3252648464
  O        11.0687023184       17.0159773244        9.4896253906
  O        47.6748921391       16.3359268987        5.6527822394
  O        46.9256706699       18.2360296595        6.6636586250
  O        49.5687289380       18.3178399431        5.9823024411
  O        10.3185595836       15.1000682523        7.9971082077
  O        52.6706229415       21.0280550917        9.2417661012
  O        12.1467382726       20.8914954562        6.6735060927
  O        13.1039207420       18.6139579133        5.3258272167
  O        13.9541020606       16.9868045890        6.6678286394
  O        29.9873336656       14.4430128146       10.7325523963
  O        28.0846862282       14.6506665374        9.4972450676
  O        32.0747461553       16.8547557109        8.0620936269
  O        30.9633859419       20.9478248001       10.4052011132
  O        32.9443266162       20.5982730334        9.3318139474
  O        29.5595165976       17.0667710489        9.5746390180
  O        30.8429472430       20.8823715436        5.6551516817
  O        32.8643593365       20.5828926857        6.6610590763
  O        31.6123652500       18.2403652936        5.9298026368
  O        28.2523794728       18.6260691642        8.0686443629
  O        32.4915956902       14.2120447336        9.3251075868
  O        32.4064502185       14.2165507737        6.8185939720
  O        29.9035058209       14.4356849180        5.4234126166
  O        28.0451693268       14.5785627218        6.7366451945
  O        17.8891626813        1.9664285957       10.6628146181
  O        18.9560623906        3.5271333249        9.4080959374
  O        39.1684944818       34.1385939498        7.9971343876
  O        43.2801758049       33.0588553112       10.3316708107
  O        42.0343234566       31.5064426896        9.2415923873
  O        20.3172557188        1.0362586531        9.4803068039
  O        43.2760437103       33.1824780398        5.5748890532
  O        42.0051556586       31.5840857863        6.5830325385
  O        40.5790557765       33.7750592295        5.9358719143
  O        22.3670987048        1.3843042664        7.9979272049
  O        36.6727645248       35.0996620184        9.2332845075
  O        16.4455814229        0.0641807505        6.6682915140
  O        17.9363886642        2.0431813703        5.3263977162
  O        18.9188279351        3.5931359807        6.6658240202
  O        29.7008822300       18.7598869846        4.0714670120
  O        29.7884298530       18.9075828373       11.9978222027
  O        31.2193761375       16.2616587453        4.0788601181
  O        31.3877981197       16.4102557269       12.0082209440
  O        30.3027434071       16.1164800279       14.5619128201
  O        28.9807221808       18.5432038523       14.5881239266
  O        39.4569364053       35.2438417937        4.0019822871
  O        19.1409821447        0.0042560915       11.9905418658
  O        41.9695716058       35.1726317212        4.0871163906
  O        21.6911111495       -0.0693726588       11.8958765775
  O        51.3648588285       18.6141998269        4.0051252772
  O        10.7509477266       18.7472124879       11.9053369373
  O        50.0794978347       16.4127568899        4.0916046206
  O         9.5240375850       16.4831610079       11.9912670914
 Zr         9.2972010528       16.0528919926        6.1824352824
 Zr        49.8366004455       16.0069604255        9.7464107362
 Zr        22.0733049985        0.0296124568        6.1891385514
 Zr        42.4607926241       35.1532560071        9.8008710814
 Zr        29.5488932738       19.0271127830        6.2545552149
 Zr        29.5650463126       19.1699555603        9.8218997818
 Zr        11.0384035334       19.0521427495        9.8280572987
 Zr        11.0438572868       19.1551239584        6.2511677155
 Zr        31.3272816593       16.0878872955        9.8655222448
 Zr        31.3687571287       15.9973326625        6.2600085744
 Zr        18.6009359062       -0.0017832316        9.7634875684
 Zr        18.5066176404       -0.0077709016        6.2135066702
 Zr        12.3014435282       16.3233140483        7.9907042304
 Zr        48.6168549938       18.8329820320        8.0103116703
 Zr        20.3145043246        2.4730497214        7.9905932270
 Zr        40.6429688362       32.6867918905        7.9781508355
 Zr        28.3200217450       16.3085869716        8.0862641610
 Zr        32.6040719742       18.8288626195        8.0269794709
  H        29.7479419582       16.1613683670        1.9570506818
  H        30.5225405130       18.8276519699        1.6424798173
