     560
 i =       98, E =     -4677.7010548271
  C        11.8585322988       14.0534102863        5.7415306233
  C        12.4558578414       12.8903605570        5.0233200129
  C        11.7042398071       12.1717783198        4.0813269380
  C        12.2804977215       11.1095043192        3.3889897894
  C        13.6209186845       10.7392605291        3.6169850294
  C        14.3539597234       11.4424337830        4.5908601227
  C        13.7811827987       12.5074518793        5.2823930883
  C        14.2603673291        9.6485710036        2.8435553791
  C        14.2554740633        9.6563964170        1.4218457625
  C        13.7423157369       10.7584958043        0.6678998264
  C        49.1265640289       21.2334282592        5.8797465551
  C        48.5497213113       22.4012708315        5.1527409824
  C        49.2997263229       23.0685593427        4.1716830507
  C        48.7327603162       24.1076243440        3.4384358662
  C        47.4022133275       24.5092634167        3.6670587819
  C        46.6713011114       23.8604528283        4.6806527612
  C        47.2337737748       22.8155992738        5.4100564477
  C        46.7719828045       25.5869100371        2.8697379953
  C        46.7610606134       25.5572786895        1.4479806896
  C        47.2610133687       24.4421850517        0.7045034758
  C        14.8593264777        8.5700110835        0.7085668094
  C        14.8912472129        8.5966511439        3.5201792124
  C        49.1128825522       21.2034678025       10.1452754691
  C        48.5274792415       22.3647544998       10.8723826849
  C        49.2666218238       23.0252934910       11.8654948081
  C        48.6902894019       24.0598199818       12.5969689335
  C        47.3599413727       24.4567549405       12.3585909208
  C        46.6396384278       23.8120473531       11.3348491879
  C        47.2131960922       22.7761768248       10.6030241023
  C        46.7215008970       25.5316895357       13.1496331649
  C        46.7332823003       25.5280489001       14.5713345793
  C        47.2487383758       24.4288614497       15.3277410607
  C        40.6169238315       17.0806982967       15.3167375146
  C        40.6361752723       17.1314840480       12.5062442943
  C        11.8827600176       14.0862989919       10.2854357138
  C        12.4717123607       12.9102429862       10.9894563948
  C        11.7141745555       12.1775647157       11.9159789808
  C        12.2804682085       11.0949708492       12.5844017389
  C        13.6190455245       10.7205491230       12.3522257330
  C        14.3569468657       11.4354689288       11.3908624922
  C        13.7918082265       12.5167682613       10.7181497118
  C        14.2525014024        9.6237897091       13.1227176482
  C        14.2513125063        9.6438554228       14.5445625562
  C        13.7416031094       10.7528726796       15.2916443122
  C        22.5068700629        3.2430333196        5.7484708239
  C        23.2111096742        4.3463077767        5.0368416030
  C        24.2097681452        4.0636351424        4.0933339279
  C        24.8317596009        5.1008518787        3.4036224024
  C        24.4695281325        6.4422630662        3.6368942726
  C        23.4955960158        6.7165580186        4.6142514824
  C        22.8699926810        5.6812971958        5.3033842675
  C        25.0782564402        7.5471259364        2.8625500392
  C        25.0715305744        7.5359305839        1.4412989372
  C        24.3805406155        6.5334511344        0.6898227607
  C        38.3002836572       31.9269285712        5.8483468115
  C        37.5646573055       30.8386318572        5.1392915214
  C        36.6002499090       31.1467735841        4.1670125665
  C        35.9730766181       30.1305508855        3.4507360199
  C        36.2941330240       28.7785011104        3.6829847048
  C        37.2298382006       28.4777669523        4.6912480644
  C        37.8608940678       29.4929622047        5.4070248408
  C        35.6809206895       27.6904533428        2.8852209609
  C        35.7094258569       27.7060226110        1.4629393418
  C        36.4160906928       28.7072684223        0.7250707494
  C        25.7032137132        8.6048830298        0.7274109930
  C        25.6610834442        8.6261815846        3.5382100270
  C        38.3261199187       31.9605158273       10.1567344037
  C        37.5984073821       30.8884242789       10.8973981954
  C        36.6660292847       31.2001842425       11.8992702468
  C        36.0470873402       30.1846820603       12.6263535172
  C        36.3448844249       28.8296607718       12.3769214888
  C        37.2555547805       28.5280199840       11.3452586526
  C        37.8764932092       29.5401687048       10.6190480076
  C        35.7284883261       27.7328855721       13.1609697919
  C        35.7335199040       27.7277450144       14.5838321794
  C        36.4268130166       28.7181793767       15.3481626177
  C        46.1352743176       26.6206905522       15.2814563725
  C        46.0875041811       26.5800183834       12.4735706732
  C        22.4657820302        3.2542550550       10.2523924613
  C        23.1733448043        4.3599091088       10.9648187785
  C        24.1847508685        4.0679372207       11.8937293281
  C        24.8245867443        5.0946267549       12.5832701201
  C        24.4722170272        6.4414180679       12.3661973903
  C        23.4853844984        6.7268534691       11.4040886653
  C        22.8413330672        5.7004262333       10.7142809277
  C        25.1063288487        7.5350670007       13.1428346051
  C        25.0865334574        7.5288851502       14.5648149325
  C        24.3849722999        6.5319155728       15.3134207774
  C        26.5599763137       17.8264678038        5.7866921257
  C        25.2603132262       17.8911624497        5.0610045525
  C        25.0088336973       18.9054588601        4.1239018123
  C        23.8012627372       18.9370763170        3.4310051373
  C        22.8129863323       17.9579703549        3.6548453659
  C        23.0593796977       16.9675197223        4.6240780494
  C        24.2680670477       16.9306946204        5.3154067355
  C        21.5476264310       17.9533060998        2.8825934733
  C        21.5565144622       17.9497834713        1.4605753754
  C        22.7668736397       17.8431828836        0.7051287290
  C        34.4173557845       17.2153326425        5.9109772139
  C        35.7111929569       17.1434016735        5.1741749642
  C        35.8993242747       16.1795381337        4.1709284166
  C        37.0824468813       16.1494555645        3.4375501939
  C        38.1084187497       17.0834453629        3.6829691247
  C        37.9219835689       18.0261235077        4.7129455095
  C        36.7381352888       18.0605662510        5.4461122937
  C        39.3622831040       17.0844395178        2.8937291083
  C        39.3579438539       17.0932748115        1.4707861187
  C        38.1510653835       17.2075405392        0.7110800863
  C        20.3125726185       17.9673384918        0.7484778926
  C        20.3218560200       17.9432245155        3.5609844132
  C        34.4502315502       17.1876626090       10.1737012643
  C        35.7532940933       17.1149561670       10.8946125995
  C        35.9884740241       16.1125505521       11.8488476188
  C        37.1731120007       16.1014547975       12.5802948171
  C        38.1567984324       17.0879666214       12.3736387638
  C        37.9307339756       18.0639960712       11.3846488101
  C        36.7419750656       18.0833897195       10.6594169639
  C        39.4048274290       17.1068256958       13.1706779373
  C        39.3799863874       17.1027669032       14.5922684143
  C        38.1612844279       17.2076544878       15.3339983259
  C        35.0996130348       26.6499529631       15.2878965678
  C        35.1376879693       26.6616989386       12.4782614187
  C        26.5613732611       17.8280570794       10.3235789407
  C        25.2481301855       17.8839191941       11.0235599200
  C        24.9690431623       18.9207743140       11.9269206401
  C        23.7520106622       18.9521072040       12.6010841669
  C        22.7857391382       17.9490060695       12.3914116143
  C        23.0569849146       16.9376467097       11.4523687513
  C        24.2753832655       16.9024385509       10.7780855105
  C        21.5218655305       17.9390436404       13.1629971536
  C        21.5426910212       17.9422389773       14.5839249037
  C        22.7603725428       17.8405137865       15.3286372981
  C        14.0448671416       17.8318135702       10.2841940063
  C        15.3507401932       17.8966609519       11.0020719604
  C        15.6093020753       18.9122747403       11.9353054720
  C        16.8195499203       18.9401626879       12.6242563971
  C        17.8021439748       17.9551298949       12.4006900967
  C        17.5492173951       16.9643973264       11.4338133458
  C        16.3384939621       16.9322734474       10.7460154420
  C        19.0684001273       17.9434821626       13.1706657457
  C        19.0614478350       17.9462286884       14.5921978943
  C        17.8508684417       17.8460246890       15.3475542044
  C        46.8032020340       17.2181372547       10.1590356136
  C        45.5117541928       17.1533446490       10.9040845743
  C        45.3049592172       16.1710829437       11.8852420266
  C        44.1223515133       16.1480636650       12.6202501234
  C        43.1150862019       17.1075391199       12.3974904150
  C        43.3193902854       18.0698220906       11.3897920453
  C        44.5026128363       18.0963725301       10.6552329282
  C        41.8604615208       17.1121323753       13.1856562883
  C        41.8642213221       17.1010283118       14.6081574962
  C        43.0723158113       17.1938788537       15.3685321095
  C        20.3052720154       17.9624348776       15.3043372139
  C        20.2934339432       17.9195242925       12.4918310124
  C        46.7821451376       17.2304511487        5.8881015079
  C        45.4773615056       17.1197642414        5.1728177704
  C        45.2593806313       16.1161608691        4.2162785021
  C        44.0700630074       16.0813799934        3.4916342860
  C        43.0668780344       17.0469995214        3.7052421390
  C        43.2755416705       18.0208675090        4.7000484435
  C        44.4661041087       18.0619230622        5.4199641089
  C        41.8188242811       17.0614238128        2.9079972444
  C        41.8428961307       17.0739827793        1.4864637282
  C        43.0620272169       17.1787292453        0.7453500231
  C        46.1530392180       26.6371350858        0.7262104644
  C        46.1620077609       26.6560244267        3.5358525041
  C        14.0401928426       17.8291245711        5.7064111876
  C        15.3543207152       17.9007520576        5.0064737224
  C        15.6231138927       18.9254553062        4.0870790378
  C        16.8471616395       18.9659796236        3.4245371190
  C        17.8271078686       17.9807302786        3.6570135954
  C        17.5637646652       16.9816446453        4.6112580527
  C        16.3419209179       16.9409470679        5.2778603820
  C        19.0933627546       17.9663846110        2.8893623609
  C        19.0746674245       17.9573572493        1.4683698707
  C        17.8573409357       17.8511104028        0.7237263424
  C        28.8082596009       14.0811279779       10.3581521108
  C        28.2151079846       12.9019081545       11.0452452055
  C        28.9445424128       12.1830397153       12.0038585196
  C        28.3561294952       11.1061212988       12.6625254955
  C        27.0268011200       10.7264921708       12.3867768180
  C        26.3215052202       11.4259404111       11.3906110181
  C        26.9060760654       12.5025975810       10.7304802779
  C        26.3614323770        9.6457714141       13.1493180356
  C        26.3355434935        9.6740322278       14.5701348740
  C        26.8303739407       10.7885320928       15.3189857671
  C        32.1760477542       21.2417366598       10.1046218438
  C        32.7592645323       22.4052725850       10.8342557323
  C        32.0088048275       23.0603249024       11.8236545768
  C        32.5704288328       24.0994531854       12.5606805121
  C        33.8976992973       24.5131497398       12.3318087636
  C        34.6299623183       23.8736732391       11.3125767391
  C        34.0722419672       22.8292802280       10.5773285035
  C        34.5199011035       25.5914464146       13.1364643799
  C        34.5089667241       25.5649969894       14.5591695282
  C        34.0029623997       24.4497223969       15.2986805916
  C        25.7170185963        8.5970730970       15.2833457110
  C        25.7293488897        8.5948651343       12.4715920752
  C        32.0750640840       21.1935945750        5.8445043255
  C        32.6522564498       22.3613554711        5.1156778069
  C        31.9256251997       23.0041826187        4.1010888348
  C        32.4990918291       24.0479456222        3.3780200493
  C        33.8150026927       24.4765131792        3.6444886410
  C        34.5216873109       23.8479558003        4.6884708014
  C        33.9523118633       22.8025301606        5.4107016265
  C        34.4565832400       25.5591662127        2.8615208351
  C        34.4770318756       25.5485888763        1.4385024153
  C        33.9871282419       24.4421215076        0.6755700831
  C        40.6054074647       17.0710123218        0.7622166128
  C        40.5872290270       17.0843220316        3.5723350602
  C        28.6649810964       14.0647534409        5.8166272477
  C        28.0652311408       12.9185783496        5.0769878905
  C        28.8186564567       12.2119959084        4.1266414740
  C        28.2472008408       11.1560933348        3.4222858294
  C        26.9080487777       10.7791843600        3.6454508363
  C        26.1717071204       11.4708575603        4.6255037083
  C        26.7407245393       12.5288778575        5.3308240084
  C        26.2801823774        9.6869916318        2.8659420177
  C        26.2952137741        9.6955913735        1.4445606455
  C        26.8086735544       10.8001188453        0.6947766924
  C        18.1353258605        3.1808555869       10.3171204293
  C        17.4056549234        4.2779917767       11.0156264658
  C        16.3897660865        3.9993658184       11.9428690945
  C        15.7417774506        5.0391670963       12.6064044923
  C        16.0935946910        6.3829436847       12.3669702157
  C        17.0831567037        6.6527470115       11.4034746373
  C        17.7325056682        5.6155731358       10.7383871141
  C        15.4690434304        7.4905065333       13.1300532297
  C        15.4843563021        7.4898821618       14.5517709352
  C        16.1860050090        6.4963230947       15.3049219243
  C        42.9456585984       31.8594302789       10.0728262130
  C        43.6459946974       30.7716900614       10.8167627007
  C        44.5916907139       31.0930050686       11.8026692527
  C        45.1973686834       30.0874638025       12.5503532036
  C        44.8707435294       28.7344386923       12.3356274110
  C        43.9447542166       28.4200933927       11.3225802026
  C        43.3359594804       29.4252360557       10.5745226933
  C        45.4883190792       27.6551496226       13.1388371236
  C        45.4925335853       27.6807962523       14.5605317344
  C        44.8054995606       28.6888964383       15.3071327591
  C        14.8553788617        8.5623810279       15.2641263833
  C        14.8736840456        8.5622105439       12.4514592826
  C        42.9463957629       31.9615761920        5.8090436455
  C        43.6915884227       30.8853897549        5.0955430572
  C        44.6563503444       31.1912916009        4.1234166506
  C        45.2777922725       30.1716974902        3.4056253262
  C        44.9537037784       28.8214237700        3.6430182429
  C        44.0199977672       28.5237509005        4.6535748977
  C        43.3918210167       29.5405240866        5.3658200295
  C        45.5627412266       27.7240129684        2.8577756431
  C        45.5330678072       27.7173033988        1.4364805944
  C        44.8267802114       28.7075552734        0.6835272813
  C        35.0855227832       26.6402846598        0.7339958550
  C        35.0705400905       26.6171661863        3.5447183788
  C        18.1485292788        3.2467887678        5.7065975773
  C        17.4297940348        4.3435965452        4.9972579439
  C        16.4144309551        4.0522467674        4.0738956156
  C        15.7660013533        5.0828178194        3.3985040819
  C        16.1207025274        6.4280704447        3.6210298258
  C        17.1122794698        6.7115408075        4.5780540524
  C        17.7600376188        5.6826843410        5.2578402052
  C        15.4900443039        7.5237037121        2.8485880992
  C        15.4956993983        7.5069841137        1.4274446392
  C        16.1923898305        6.5052399404        0.6807363400
  H        10.6722371960       12.4662021760        3.9040639414
  H        11.6942217612       10.5512684637        2.6622533296
  H        15.3908329334       11.1674449330        4.7729052199
  H        14.3505643337       13.0702647970        6.0182120641
  H        13.3754625865       11.6307167808        1.2011546341
  H        50.3224401915       22.7485475165        3.9869447851
  H        49.3192093172       24.6228738792        2.6808201292
  H        45.6418197885       24.1612597156        4.8638378194
  H        46.6627644166       22.2904257561        6.1722002953
  H        47.6295482377       23.5758044784        1.2461858363
  H        14.8717357673        8.5879277363        4.6084894084
  H        50.2866040841       22.7023229626       12.0605303094
  H        49.2686241638       24.5751773492       13.3605820972
  H        45.6103204394       24.1094878138       11.1456180459
  H        46.6524377539       22.2542193891        9.8312735613
  H        47.6075088156       23.5517150146       14.7968852476
  H        40.6427843650       17.1102528207       11.4180967616
  H        48.6870395566       14.0950625320        7.8000144166
  H        10.6808998386       12.4671383200       12.0936922617
  H        11.6886415016       10.5249662639       13.2973795598
  H        15.3921623776       11.1570106853       11.2045746064
  H        14.3641617449       13.0856351228        9.9892383079
  H        13.3748259342       11.6215140136       14.7530235813
  H        47.9301357098       14.2181551599        9.7108880416
  H        47.7799053172       14.3736772967        6.4952949065
  H        49.0828407915       18.5522979396       10.8671164138
  H        10.4159035399       14.1343327085        7.9987599228
  H        24.4773357735        3.0249648557        3.9125503335
  H        25.6085516033        4.8822620580        2.6740948284
  H        23.2080328721        7.7494927362        4.7989659660
  H        22.0975397371        5.8827802206        6.0415014250
  H        23.8145893304        5.7768399715        1.2254488155
  H        36.3659629159       32.1911175314        3.9746058315
  H        35.2251294043       30.3758644961        2.6998936743
  H        37.4871453086       27.4373980886        4.8793125672
  H        38.6076124478       29.2657437680        6.1643234128
  H        36.9818369550       29.4568376782        1.2707405073
  H        25.6798481321        8.6131529556        4.6264504338
  H        36.4465041629       32.2452343300       12.1060339420
  H        35.3190029448       30.4347020301       13.3949045318
  H        37.4992845734       27.4868469731       11.1443479259
  H        38.6010847117       29.3095002251        9.8418066885
  H        37.0018610207       29.4757524503       14.8235638673
  H        46.1088687713       26.5874252176       11.3855342101
  H        44.6682301689       35.1161525298        7.8141461240
  H        24.4584732316        3.0281214675       12.0573341712
  H        25.6110604574        4.8626927905       13.2982868971
  H        23.2031143125        7.7629268872       11.2284895443
  H        22.0628696324        5.9166074471        9.9862357879
  H        23.8217131188        5.7746614211       14.7759449129
  H        44.9536078121       34.3898861306        9.6947137754
  H        44.9019194229       34.2068654937        6.4907055054
  H        40.6650660826       33.2083393764       10.8527544480
  H        23.1502836208        1.9576779966        8.0030701635
  H        25.7679914168       19.6655205718        3.9543176356
  H        23.6082499227       19.7280892332        2.7095820432
  H        22.3049494853       16.2042155663        4.8031412248
  H        24.4727798772       16.1531932295        6.0476320223
  H        23.7074243841       17.7302137521        1.2365358997
  H        35.0998343048       15.4699033487        3.9705395327
  H        37.2253019451       15.3936965189        2.6683817430
  H        38.7044655924       18.7564978459        4.9081046176
  H        36.5803359697       18.8050766671        6.2230088647
  H        37.2094065269       17.3277097040        1.2391511260
  H        20.3245361689       17.9692788869        4.6492080235
  H        35.2291691865       15.3516869946       12.0141198638
  H        37.3503950601       15.3226600205       13.3188438902
  H        38.6836173591       18.8318335687       11.2188732639
  H        36.5471415041       18.8555874246        9.9188188580
  H        37.2272972153       17.3247732114       14.7916709485
  H        35.1134237541       26.6869290035       11.3904150886
  H        28.5058286879       21.0972859515        7.8770673855
  H        25.7163438691       19.6949879093       12.0842444377
  H        23.5352095184       19.7569554913       13.3001283697
  H        22.3169392514       16.1574912108       11.2865255981
  H        24.5030756152       16.1094511970       10.0697752379
  H        23.6958244202       17.7263722662       14.7886666051
  H        28.9558468133       21.7356916294        9.7145713504
  H        29.1731465858       21.7170087626        6.5145289645
  H        32.2228302982       18.6748310328       10.8581110563
  H        27.3480008235       19.0642399955        8.0670720655
  H        14.8510634303       19.6732825099       12.1054142247
  H        17.0189193201       19.7318996161       13.3432139448
  H        18.2995960293       16.1971853151       11.2543444636
  H        16.1283209537       16.1550007298       10.0152321574
  H        16.9108689698       17.7310404832       14.8158492105
  H        46.0882036540       15.4384463709       12.0652432296
  H        43.9640679480       15.3776294787       13.3717249828
  H        42.5510841786       18.8195528098       11.2123580945
  H        44.6748551930       18.8538583327        9.8941158425
  H        44.0143982774       17.3106690812       14.8405240813
  H        20.2907444936       17.9388554411       11.4034886626
  H        46.0379653359       15.3770589388        4.0416051646
  H        43.9060439913       15.3018163474        2.7507892804
  H        42.5074710100       18.7719315912        4.8727101903
  H        44.6461178102       18.8332495124        6.1648696965
  H        43.9964023848       17.2827271356        1.2893218834
  H        46.1987854480       26.6825963833        4.6232989683
  H        52.7411636856       21.0626655061        8.1946172529
  H        14.8635136973       19.6837044122        3.9104878336
  H        17.0580571458       19.7638278534        2.7157105254
  H        18.3132453398       16.2145605318        4.7947976938
  H        16.1213675212       16.1591659221        6.0006189013
  H        16.9222036556       17.7401955568        1.2644528911
  H        52.3223406253       21.6736335714        6.2947383136
  H        52.0135048086       21.7025810552        9.4954846969
  H        49.0669284333       18.6075907677        5.2042304004
  H        13.2471613420       19.0165340195        7.9759982398
  H        29.9647224691       12.4902229494       12.2239532237
  H        28.9212409367       10.5482439042       13.4060209979
  H        25.2945831653       11.1416625075       11.1707002339
  H        26.3578054248       13.0651750153        9.9789360490
  H        27.2002217254       11.6572016005       14.7823912842
  H        30.9908937539       22.7272223886       12.0128905091
  H        31.9814097685       24.6048972063       13.3228314951
  H        35.6574489659       24.1809095007       11.1286950445
  H        34.6463694007       22.3134992447        9.8110122189
  H        33.6521447155       23.5771787475       14.7550057485
  H        25.7666341205        8.5755535030       11.3838253809
  H        30.9170022298       22.6616330879        3.8810452261
  H        31.9269514951       24.5454927724        2.5980569884
  H        35.5401038734       24.1654548391        4.9026146909
  H        34.5070201920       22.2968792923        6.1975087223
  H        33.6248426051       23.5632856492        1.2013335380
  H        40.5807823602       17.0500074214        4.6601454190
  H        32.5183839842       14.1408030460        8.1658689274
  H        29.8544035140       12.4983276258        3.9595417000
  H        28.8373828208       10.6048348585        2.6935191320
  H        25.1356435523       11.1902884011        4.8035911751
  H        26.1695101087       13.0798663410        6.0742152849
  H        27.1605159917       11.6778544632        1.2290820986
  H        33.2902581371       14.2353052428        6.3537295272
  H        33.4104268684       14.3596387875        9.5348819748
  H        32.0855393349       18.5112662729        5.1056428182
  H        30.1900214802       14.1400219138        8.0615739395
  H        16.1178154210        2.9627924215       12.1290518971
  H        14.9522141191        4.8195740812       13.3218767363
  H        17.3655822529        7.6856773966       11.2106445945
  H        18.5147000866        5.8184033584       10.0107534459
  H        16.7525258371        5.7389749053       14.7713934944
  H        44.8280826806       32.1400805695       11.9767249112
  H        45.9373435136       30.3412006835       13.3061948884
  H        43.6818741177       27.3780456156       11.1526315040
  H        42.5991831483       29.1899445915        9.8099997797
  H        44.2301816719       29.4366724551       14.7687974120
  H        14.8499339774        8.5453869157       11.3632400642
  H        44.9000930135       32.2339629967        3.9321718911
  H        46.0248292313       30.4129034989        2.6525106517
  H        43.7627419059       27.4840463485        4.8448761384
  H        42.6451306057       29.3177773915        6.1240933561
  H        44.2683141962       29.4704705741        1.2181202772
  H        35.0278918300       26.6302816122        4.6322170186
  H        36.6051877767       35.1338728383        8.1807300026
  H        16.1433097953        3.0126494243        3.9043426712
  H        14.9735580971        4.8558778052        2.6885800654
  H        17.3958791236        7.7470158718        4.7547490861
  H        18.5429766914        5.8931968088        5.9825193784
  H        16.7639144586        5.7550615537        1.2191647923
  H        36.2787821048       34.4820416582        6.2733054477
  H        36.3809004223       34.2091327424        9.4998563734
  H        40.5795372604       33.2021332724        5.1540226486
  H        17.4709234489        1.9470060300        7.9740058466
  H        28.6975382760       19.0793888974       12.3181851453
  H        28.6804144916       18.8668418254        3.7221111167
  H        30.6405497033       15.3970795559        3.7802085855
  H        32.4893503157       16.2385170975       12.3121508020
  H        18.8537258532        0.8690026743       12.3352563079
  H        40.5282445764       35.2289889817        3.9521573344
  H        42.3236415952       34.4188643711        3.5903549593
  H        22.0874615383        0.6921159149       12.3516448020
  H        11.5966308409       18.7129105341       12.3825824306
  H        52.2646980413       18.4313223726        3.6774492212
  H        49.2551767172       16.4763806225        3.5840397766
  H        10.1503236357       15.7982719961       12.2926195702
  H        50.8498774876       17.6926692749        3.9540141108
  H        10.0460413023       17.3947335319       12.0519342117
  H        20.2150426513        0.0020607574       12.0419618413
  H        39.1836474064       36.1242983869        3.6863975083
 Ni        30.5194278054       17.5756771703        2.9208143148
 Ni        30.9432300574       17.8169617739       14.6550223060
 Ni        30.6032932857       17.4800759252        0.7501875358
 Ni        30.6059035739       17.6729670722       12.4154377024
  O        10.6497784925       14.3652233950        5.4858006996
  O        12.6130496601       14.6574211175        6.5838365582
  O        49.1475876695       16.8459559754        7.9896651953
  O        50.3500824134       20.9362788911        5.6482506001
  O        48.3484386847       20.5932344269        6.6659384970
  O        11.0508681537       17.0540828537        6.5006251090
  O        50.3206747018       20.8816750667       10.4068571043
  O        48.3465871353       20.5866178858        9.3270202379
  O        49.5433633255       18.2484026015       10.0682621492
  O        12.3588145317       18.6246399040        7.9996380227
  O        48.6931588207       14.1486639460        6.7512802629
  O         8.2098326872       14.2104716929        9.3225436242
  O        10.7352559826       14.5067967075       10.6643563191
  O        12.5717196426       14.5827245033        9.3285500443
  O        22.8442270651        2.0421617220        5.4873048143
  O        21.6049560694        3.5919656812        6.5894302248
  O        42.0578965820       34.1370390699        7.9790513698
  O        37.9812885882       33.1358371261        5.5721047558
  O        39.2171994812       31.5748332949        6.6653196737
  O        20.3082972567        1.0395039790        6.5019432702
  O        38.0241859524       33.1850380507       10.4155407791
  O        39.2178037785       31.5825879300        9.3277401856
  O        40.6521808961       33.7691109628       10.0601773731
  O        18.2557877089        1.3760876129        7.9967781285
  O        44.6222161181       35.1005437074        6.7588503457
  O        24.2054774913       -0.0001095837        9.3207661734
  O        22.7530891326        2.0563031010       10.5828819034
  O        21.6245642906        3.5957376333        9.3423851053
  O        27.4600428864       18.6931605480        5.4855963353
  O        26.6909687911       16.9195503207        6.6703690891
  O        30.6314035420       19.3476328376        7.9980315267
  O        33.5369534057       16.3302147232        5.6548894906
  O        34.2667437698       18.1797756979        6.7415478710
  O        29.5330885563       17.0230093946        6.5730597685
  O        33.5874444901       16.2661236196       10.4104652817
  O        34.2628552172       18.1820026043        9.4015324100
  O        31.6432571372       18.3143972668       10.1636394591
  O        30.2916313846       15.1056575655        8.0704004797
  O        28.5516712338       21.0289879826        6.8157394761
  O        28.5069536802       20.9647736732        9.3271992214
  O        27.4546509022       18.6792413395       10.6558716942
  O        26.6901246592       16.9296271713        9.4165269943
  O        13.1463957482       18.6938213148       10.5861796989
  O        13.9179585487       16.9159859529        9.4040416524
  O        50.5956320207       19.3502460203        8.0205224526
  O        47.6823845979       16.3272700465       10.4175465126
  O        46.9505757054       18.1756746948        9.3253461403
  O        11.0690101086       17.0158885796        9.4895743431
  O        47.6742277106       16.3359422045        5.6526820229
  O        46.9242858521       18.2358337818        6.6628038473
  O        49.5685808779       18.3177543176        5.9822141346
  O        10.3186177190       15.1001949242        7.9970802147
  O        52.6706826306       21.0280023657        9.2418077208
  O        12.1468169960       20.8914018819        6.6733061175
  O        13.1048005450       18.6143377408        5.3262108329
  O        13.9556699959       16.9866701239        6.6650993552
  O        29.9970198618       14.4367454026       10.6616798445
  O        28.0716097838       14.6582831257        9.4860662130
  O        32.0691655210       16.8525690625        8.0607015344
  O        30.9557085663       20.9545765348       10.3288885989
  O        32.9559930124       20.5853743474        9.3245443233
  O        29.5705507452       17.0732713128        9.5745149365
  O        30.8571004790       20.8751549799        5.5887898648
  O        32.8568815912       20.5822082716        6.6551282257
  O        31.6075576434       18.2394421933        5.9080358756
  O        28.2356455849       18.6707896946        8.0600795083
  O        32.4936925931       14.2057234441        9.2428281754
  O        32.4001317793       14.2144244270        6.7438972389
  O        29.8419777252       14.4401310478        5.4843515220
  O        27.9622499625       14.5855431073        6.7506472679
  O        17.8892030101        1.9665291280       10.6628016914
  O        18.9561734302        3.5271298194        9.4080234254
  O        39.1684763266       34.1385169962        7.9971913054
  O        43.2801627184       33.0587675170       10.3316919247
  O        42.0343021452       31.5064168020        9.2415676523
  O        20.3174161588        1.0363818615        9.4801880495
  O        43.2760963203       33.1824983630        5.5748924714
  O        42.0052076375       31.5841307519        6.5830286187
  O        40.5790476254       33.7750213491        5.9360077919
  O        22.3671732723        1.3844281288        7.9980077458
  O        36.6727891753       35.0997273597        9.2333301263
  O        16.4456291330        0.0640761518        6.6682093002
  O        17.9363613242        2.0431865958        5.3264371452
  O        18.9189085962        3.5931301893        6.6659007277
  O        29.6193326554       18.8976221707        3.9886529030
  O        29.6148610114       19.1914840406       12.0034440001
  O        31.1852840269       16.1779917601        4.0053513624
  O        31.5529810693       16.1175001695       12.0714204786
  O        39.4568407895       35.2437202279        4.0020183075
  O        19.1415444066        0.0045104657       11.9905239902
  O        41.9694519791       35.1726946280        4.0871850197
  O        21.6912622552       -0.0694287923       11.8960311193
  O        51.3647728395       18.6143781906        4.0052677956
  O        10.7508645646       18.7472130764       11.9050138335
  O        50.0793863335       16.4127286383        4.0917367516
  O         9.5244032843       16.4831252950       11.9911911441
 Zr         9.2966233606       16.0528903520        6.1821912425
 Zr        49.8362586830       16.0068787891        9.7465935744
 Zr        22.0732505457        0.0296325293        6.1892601841
 Zr        42.4608296605       35.1532992880        9.8010405919
 Zr        29.5546264248       19.0650837090        6.2250538705
 Zr        29.5477677528       19.2057687539        9.8012620039
 Zr        11.0373300656       19.0524097181        9.8277315238
 Zr        11.0433520953       19.1552158882        6.2511327177
 Zr        31.3445924508       16.0432624271        9.8447745145
 Zr        31.3505056564       15.9978285699        6.2510533042
 Zr        18.6011413399       -0.0017302361        9.7636180911
 Zr        18.5065172031       -0.0081303445        6.2135476365
 Zr        12.3010930956       16.3232562855        7.9904139753
 Zr        48.6158763691       18.8329714943        8.0099462664
 Zr        20.3151006858        2.4732868604        7.9907367973
 Zr        40.6427572730       32.6866656685        7.9782451655
 Zr        28.3175777619       16.3265421435        8.0866611512
 Zr        32.6043857527       18.8286276131        8.0177980178
