     560
 i =      245, E =     -4677.7331616142
  C        11.8585166302       14.0533962031        5.7415751322
  C        12.4558308626       12.8903318829        5.0233735714
  C        11.7042106453       12.1717831970        4.0813602842
  C        12.2804596731       11.1095135304        3.3890106509
  C        13.6208670981       10.7392481713        3.6170389085
  C        14.3539172022       11.4423978582        4.5909217697
  C        13.7811474828       12.5074143728        5.2824603861
  C        14.2602974597        9.6485450431        2.8436198959
  C        14.2554817313        9.6564020854        1.4219097411
  C        13.7424007015       10.7585413045        0.6679652899
  C        49.1265790029       21.2334110310        5.8797415109
  C        48.5497343358       22.4012427154        5.1527006935
  C        49.2997830925       23.0685678384        4.1717033944
  C        48.7328445763       24.1076548142        3.4384670540
  C        47.4022913535       24.5092836092        3.6670589745
  C        46.6713173100       23.8604045186        4.6805628986
  C        47.2337653009       22.8155314165        5.4099583660
  C        46.7720929515       25.5869565655        2.8697467639
  C        46.7611922554       25.5573507938        1.4479895681
  C        47.2611277749       24.4422467858        0.7045162722
  C        14.8593131591        8.5700014635        0.7086376120
  C        14.8911132760        8.5965966820        3.5202551470
  C        49.1128849380       21.2034514632       10.1453053129
  C        48.5275091755       22.3647722963       10.8723998782
  C        49.2666730517       23.0252945762       11.8655037914
  C        48.6903630803       24.0598363629       12.5969735895
  C        47.3600287607       24.4568063124       12.3585951988
  C        46.6397192201       23.8121241525       11.3348428965
  C        47.2132456731       22.7762384520       10.6030172564
  C        46.7216158441       25.5317531525       13.1496465520
  C        46.7333975490       25.5281174243       14.5713491453
  C        47.2488574432       24.4289312978       15.3277554574
  C        40.6175838347       17.0743801855       15.3169925545
  C        40.6366353480       17.1294635179       12.5065572631
  C        11.8827897690       14.0863146419       10.2854526040
  C        12.4717944172       12.9102835175       10.9894948739
  C        11.7142809658       12.1775403882       11.9159865052
  C        12.2806354749       11.0949841276       12.5844257474
  C        13.6192497296       10.7206624209       12.3522955605
  C        14.3571393930       11.4356648763       11.3909876511
  C        13.7919408812       12.5169254963       10.7182575058
  C        14.2527083284        9.6238943197       13.1227824199
  C        14.2514666829        9.6439293103       14.5446274941
  C        13.7417554345       10.7529458187       15.2917082724
  C        22.5064519386        3.2429620556        5.7481385459
  C        23.2099991663        4.3461019499        5.0357669828
  C        24.2102089982        4.0632632530        4.0939704496
  C        24.8321727401        5.1002937917        3.4040204158
  C        24.4682375511        6.4415557017        3.6353349448
  C        23.4923454707        6.7160958966        4.6106288978
  C        22.8668642451        5.6810016591        5.3000982731
  C        25.0778087100        7.5460033526        2.8612220536
  C        25.0735601278        7.5337071173        1.4400318495
  C        24.3836523661        6.5307664903        0.6882015228
  C        38.3001859015       31.9273042556        5.8483578662
  C        37.5636716586       30.8397590666        5.1391933376
  C        36.5986593681       31.1494580656        4.1680066699
  C        35.9698039681       30.1343534493        3.4517421902
  C        36.2899124172       28.7819309795        3.6828341898
  C        37.2265212127       28.4796103509        4.6897740499
  C        37.8591757550       29.4937184314        5.4056809460
  C        35.6747163070       27.6950103087        2.8851964505
  C        35.7020855596       27.7110449973        1.4629266073
  C        36.4090039901       28.7119831707        0.7248365940
  C        25.7065293260        8.6020810759        0.7264892160
  C        25.6591650747        8.6256207789        3.5372014775
  C        38.3258902225       31.9605111458       10.1566128576
  C        37.5975658248       30.8886342304       10.8971337719
  C        36.6623307886       31.2009123426       11.8962039253
  C        36.0424906716       30.1858727573       12.6231543545
  C        36.3424336380       28.8308129715       12.3766380687
  C        37.2560340178       28.5285260376       11.3477873302
  C        37.8777321920       29.5402457157       10.6215586776
  C        35.7249015388       27.7347733192       13.1609058666
  C        35.7276652943       27.7312769974       14.5837791182
  C        36.4203152391       28.7222922946       15.3479336031
  C        46.1354495541       26.6207929635       15.2814740074
  C        46.0876113648       26.5800794423       12.4735873100
  C        22.4662709515        3.2541543962       10.2520441640
  C        23.1750323337        4.3594575111       10.9637486593
  C        24.1875516784        4.0668492344       11.8912662271
  C        24.8282866673        5.0930856982       12.5806179696
  C        24.4756505680        6.4399873625       12.3647342353
  C        23.4879014878        6.7260976908       11.4037903333
  C        22.8429901910        5.7001216107       10.7141238783
  C        25.1102459159        7.5331140074       13.1416437480
  C        25.0908831075        7.5262464988       14.5636129916
  C        24.3892031346        6.5290413667       15.3118370997
  C        26.5585216049       17.8263068269        5.7881634859
  C        25.2583867648       17.8906714150        5.0627113407
  C        25.0067922150       18.9058006217        4.1266272782
  C        23.7995742228       18.9377015487        3.4331739307
  C        22.8118107103       17.9577982505        3.6554484789
  C        23.0583513182       16.9661766857        4.6233838602
  C        24.2667668832       16.9292666792        5.3153741111
  C        21.5466928221       17.9539076602        2.8828298138
  C        21.5558180450       17.9513988837        1.4608519899
  C        22.7664117073       17.8451605822        0.7057312127
  C        34.4180734987       17.2153182986        5.9118472304
  C        35.7121447839       17.1432215681        5.1747018422
  C        35.9006076008       16.1767957012        4.1740238015
  C        37.0836911617       16.1453109581        3.4406007605
  C        38.1089746253       17.0807702895        3.6831305372
  C        37.9217713198       18.0267796041        4.7098489168
  C        36.7380833795       18.0623067015        5.4433749061
  C        39.3629466038       17.0801876532        2.8940275090
  C        39.3587795892       17.0867851272        1.4711348274
  C        38.1517793204       17.1985537540        0.7114231091
  C        20.3120355098       17.9695015956        0.7484481996
  C        20.3208279419       17.9436471140        3.5608758243
  C        34.4508424414       17.1877382600       10.1735070152
  C        35.7538916176       17.1146428862       10.8948472738
  C        35.9895677112       16.1101659878       11.8467222283
  C        37.1741562519       16.0978997398       12.5782222057
  C        38.1572582189       17.0854661716       12.3740097639
  C        37.9304910744       18.0640834350       11.3877419776
  C        36.7418281320       18.0843995113       10.6622766472
  C        39.4053526959       17.1028126236       13.1709763416
  C        39.3806178255       17.0958771717       14.5925180361
  C        38.1618052283       17.1983960475       15.3343954698
  C        35.0924744404       26.6544182897       15.2881522647
  C        35.1354731364       26.6626741518       12.4784829859
  C        26.5622344424       17.8273046020       10.3240567459
  C        25.2494223855       17.8821733806       11.0255081792
  C        24.9688459710       18.9211500012       11.9259241576
  C        23.7516807912       18.9529132728       12.5998817227
  C        22.7867518062       17.9480395605       12.3927635711
  C        23.0597918104       16.9337613437       11.4574936696
  C        24.2783341028       16.8982957336       10.7834025666
  C        21.5222783753       17.9394448733       13.1634458865
  C        21.5425731653       17.9436058117       14.5842966854
  C        22.7601405166       17.8421130348       15.3292612072
  C        14.0451375784       17.8321736303       10.2838816075
  C        15.3513327408       17.8977932997       11.0011517991
  C        15.6099666378       18.9139789310       11.9337622085
  C        16.8202533723       18.9423001634       12.6226437955
  C        17.8028398646       17.9570942738       12.3997477085
  C        17.5500241131       16.9660582313       11.4331275633
  C        16.3392746829       16.9335153216       10.7453673219
  C        19.0688605895       17.9454800229       13.1701591710
  C        19.0614135769       17.9488696636       14.5917184072
  C        17.8506130189       17.8491764945       15.3468134021
  C        46.8032261321       17.2180399181       10.1589503316
  C        45.5118633566       17.1529361803       10.9040485741
  C        45.3048760238       16.1693818273       11.8838637450
  C        44.1223633216       16.1457235088       12.6189313738
  C        43.1154704015       17.1059023273       12.3976855659
  C        43.3199932184       18.0696538813       11.3914446392
  C        44.5031161965       18.0967794354       10.6567232307
  C        41.8609229216       17.1092061923       13.1859131414
  C        41.8648510764       17.0960208677       14.6083970531
  C        43.0729955385       17.1887415312       15.3687544560
  C        20.3050137375       17.9646058164       15.3043134781
  C        20.2941667252       17.9203536849       12.4917580473
  C        46.7822710629       17.2303604312        5.8882114868
  C        45.4775590160       17.1191859470        5.1730466040
  C        45.2596880551       16.1145528735        4.2175763336
  C        44.0704393027       16.0789919777        3.4929400761
  C        43.0673319886       17.0448864317        3.7055110688
  C        43.2758820020       18.0198737571        4.6992235303
  C        44.4663780170       18.0616679405        5.4191840052
  C        41.8193792739       17.0581650930        2.9082343206
  C        41.8436192239       17.0691469204        1.4867075406
  C        43.0627795819       17.1737002782        0.7455693481
  C        46.1532018989       26.6372320386        0.7262291604
  C        46.1621291133       26.6560700069        3.5358681028
  C        14.0400771973       17.8292141377        5.7064997429
  C        15.3540721599       17.9011241387        5.0065607637
  C        15.6223591523       18.9258678112        4.0870750139
  C        16.8462258686       18.9666656027        3.4243031318
  C        17.8263972787       17.9816499862        3.6566769907
  C        17.5636066347       16.9825931563        4.6111006819
  C        16.3419546098       16.9416331791        5.2779681664
  C        19.0925049376       17.9676237435        2.8890057696
  C        19.0739781241       17.9595461049        1.4680256325
  C        17.8568131396       17.8539941131        0.7229968230
  C        28.8083372352       14.0817293813       10.3579503310
  C        28.2152304313       12.9023249543       11.0454744909
  C        28.9467882434       12.1811985592       12.0007144331
  C        28.3594986923       11.1035881865       12.6592241983
  C        27.0291516358       10.7255509282       12.3865054060
  C        26.3213152345       11.4276422440       11.3940657272
  C        26.9049085637       12.5049492893       10.7340127277
  C        26.3652559168        9.6437257182       13.1487358233
  C        26.3408381359        9.6707431778       14.5695384113
  C        26.8375790338       10.7841541725       15.3187569836
  C        32.1765588187       21.2416496713       10.1043317439
  C        32.7592509494       22.4053073326       10.8347983421
  C        32.0064619491       23.0631335630       11.8205661053
  C        32.5670026822       24.1026516891       12.5578628079
  C        33.8955835880       24.5141126029       12.3326723745
  C        34.6304406227       23.8716366768       11.3172664262
  C        34.0737151201       22.8267950173       10.5818131708
  C        34.5162250002       25.5935083554       13.1370439349
  C        34.5022386373       25.5690979119       14.5597036394
  C        33.9934408376       24.4553619511       15.2996095699
  C        25.7215027912        8.5940869042       15.2824552842
  C        25.7325909323        8.5934566148       12.4706790480
  C        32.0751186055       21.1944526068        5.8458038957
  C        32.6514367273       22.3634870983        5.1172526152
  C        31.9210242843       23.0095426231        4.1074704552
  C        32.4921730181       24.0544109135        3.3841370855
  C        33.8097437609       24.4807689919        3.6455307518
  C        34.5206810983       23.8486389141        4.6844050290
  C        33.9533396158       22.8022446163        5.4071024455
  C        34.4492313687       25.5644634226        2.8621124333
  C        34.4679114875       25.5546262518        1.4391026501
  C        33.9760158423       24.4488413579        0.6764656015
  C        40.6061534422       17.0648545668        0.7624731663
  C        40.5878256662       17.0816182466        3.5726260234
  C        28.6625011617       14.0631245190        5.8181606663
  C        28.0622242558       12.9171571678        5.0782614090
  C        28.8178060945       12.2079247220        4.1316455255
  C        28.2470782006       11.1522221274        3.4264613216
  C        26.9064083128       10.7782974546        3.6451859804
  C        26.1675639471       11.4729124991        4.6212005642
  C        26.7360542586       12.5306732325        5.3275480365
  C        26.2799074371        9.6855925128        2.8652844730
  C        26.2981226239        9.6927411259        1.4439952238
  C        26.8146594135       10.7959586471        0.6944947861
  C        18.1353762219        3.1808760368       10.3171678870
  C        17.4058304119        4.2780280848       11.0157590304
  C        16.3898563850        3.9994346630       11.9429175774
  C        15.7418680845        5.0392513000       12.6064214115
  C        16.0937905659        6.3830169289       12.3670805865
  C        17.0834752530        6.6527875775       11.4037040059
  C        17.7328198156        5.6155998088       10.7386351788
  C        15.4692120373        7.4905839759       13.1301381213
  C        15.4844225531        7.4899070871       14.5518551566
  C        16.1859673430        6.4962866795       15.3050183982
  C        42.9457177557       31.8594237117       10.0727655325
  C        43.6461264838       30.7716898371       10.8166568561
  C        44.5918438826       31.0930431935       11.8025358530
  C        45.1975372017       30.0875255731       12.5502472487
  C        44.8708745889       28.7344917553       12.3356259855
  C        43.9448661175       28.4201137332       11.3226021739
  C        43.3360551492       29.4252285637       10.5745091566
  C        45.4884738517       27.6552321777       13.1388541287
  C        45.4927159483       27.6809017351       14.5605471096
  C        44.8057415761       28.6890401394       15.3071504426
  C        14.8554421428        8.5624085490       15.2641975102
  C        14.8739246096        8.5623264337       12.4515341997
  C        42.9463634221       31.9615832165        5.8090112580
  C        43.6915554416       30.8854101275        5.0954938554
  C        44.6563594886       31.1913316241        4.1234158251
  C        45.2778741953       30.1717572358        3.4056615282
  C        44.9538373912       28.8214710950        3.6430598205
  C        44.0201008354       28.5237735479        4.6535842557
  C        43.3918567047       29.5405341790        5.3657929063
  C        45.5628951340       27.7240838147        2.8578047042
  C        45.5332566607       27.7174097159        1.4365079193
  C        44.8270201058       28.7076908841        0.6835437426
  C        35.0772717577       26.6456621489        0.7342617145
  C        35.0645184423       26.6217905818        3.5449895863
  C        18.1484647678        3.2467938188        5.7066592964
  C        17.4297251858        4.3435863634        4.9973216279
  C        16.4143803497        4.0522019953        4.0739515920
  C        15.7659023852        5.0827503763        3.3985778862
  C        16.1205528730        6.4280151963        3.6211191299
  C        17.1120975790        6.7115217993        4.5781683233
  C        17.7598966903        5.6826842140        5.2579414170
  C        15.4898961452        7.5236388322        2.8486698880
  C        15.4956001124        7.5069296364        1.4275264104
  C        16.1922765197        6.5051659815        0.6808319816
  H        10.6722233057       12.4662455782        3.9040772514
  H        11.6941877902       10.5512952752        2.6622550271
  H        15.3907841927       11.1673877326        4.7729760753
  H        14.3505341001       13.0702259274        6.0182744624
  H        13.3755646266       11.6307678449        1.2012277170
  H        50.3225050463       22.7485609713        3.9870009042
  H        49.3193277898       24.6229429334        2.6809055666
  H        45.6418223954       24.1611901435        4.8637041608
  H        46.6627263281       22.2903025014        6.1720425399
  H        47.6296449461       23.5758599308        1.2461974477
  H        14.8715555020        8.5878668225        4.6085654223
  H        50.2866487562       22.7023015163       12.0605330494
  H        49.2687060493       24.5751666324       13.3605962526
  H        45.6104092891       24.1095871631       11.1456105193
  H        46.6524890607       22.2543097769        9.8312463017
  H        47.6075950013       23.5517755358       14.7968941231
  H        40.6431840226       17.1106330954       11.4183690301
  H        48.6870548221       14.0950607247        7.8000233368
  H        10.6809759406       12.4670322881       12.0936584744
  H        11.6888168932       10.5249219653       13.2973664611
  H        15.3923860249       11.1572936597       11.2047350681
  H        14.3642875442       13.0858501925        9.9893876268
  H        13.3750450709       11.6216138447       14.7530823689
  H        47.9301366281       14.2181845260        9.7108653551
  H        47.7799236839       14.3738019201        6.4953415436
  H        49.0828572267       18.5522408983       10.8671642753
  H        10.4158337863       14.1343248049        7.9987904367
  H        24.4791177883        3.0246548217        3.9148639341
  H        25.6103770270        4.8817658811        2.6759824502
  H        23.2034103238        7.7489603464        4.7935953138
  H        22.0930760438        5.8824930134        6.0368150991
  H        23.8174092902        5.7741526627        1.2235056535
  H        36.3651936220       32.1941529194        3.9765741810
  H        35.2212740151       30.3808365354        2.7018650933
  H        37.4831287521       27.4388708514        4.8767115196
  H        38.6064629737       29.2653462574        6.1620701626
  H        36.9746472759       29.4617202514        1.2703698239
  H        25.6754909376        8.6136896141        4.6254917753
  H        36.4410693328       32.2460262538       12.1007512499
  H        35.3121497766       30.4362600185       13.3894465350
  H        37.5014288592       27.4873079656       11.1491249599
  H        38.6044303532       29.3091339218        9.8464119660
  H        36.9955758177       29.4795951127       14.8231751685
  H        46.1089532265       26.5874688023       11.3855510599
  H        44.6682276346       35.1161453083        7.8141601761
  H        24.4613330261        3.0269123086       12.0539774591
  H        25.6155709066        4.8607282175       13.2946100487
  H        23.2055818403        7.7623109555       11.2291011590
  H        22.0637608044        5.9167824258        9.9870439024
  H        23.8265792862        5.7715720579       14.7740119526
  H        44.9536401999       34.3898950628        9.6947181318
  H        44.9019049138       34.2068623045        6.4907052005
  H        40.6649577981       33.2083125663       10.8527498633
  H        23.1502658411        1.9577046615        8.0028671356
  H        25.7658124754       19.6662975900        3.9584404739
  H        23.6063681670       19.7294718318        2.7126235157
  H        22.3042988926       16.2021607654        4.8010211961
  H        24.4717911839       16.1510420201        6.0467772541
  H        23.7067876191       17.7326295660        1.2375507925
  H        35.1011176625       15.4664177352        3.9760645845
  H        37.2271450063       15.3872786045        2.6737692369
  H        38.7035639084       18.7586250081        4.9022699578
  H        36.5795522408       18.8091142710        6.2179405462
  H        37.2100949218       17.3173382571        1.2397399488
  H        20.3233063861       17.9688262647        4.6491154714
  H        35.2306126300       15.3484733548       12.0097833459
  H        37.3520119627       15.3173289742       13.3147556971
  H        38.6827973588       18.8329668550       11.2241490496
  H        36.5464031801       18.8582047961        9.9234894031
  H        37.2276397788       17.3140384772       14.7920548979
  H        35.1135269057       26.6862434777       11.3905493474
  H        28.5058117974       21.0962884929        7.8738834148
  H        25.7148833715       19.6971609231       12.0804054996
  H        23.5334944137       19.7595638952       13.2964251512
  H        22.3208753117       16.1520238230       11.2940664011
  H        24.5073623854       16.1036010038       10.0774154745
  H        23.6955781220       17.7278464522       14.7892926657
  H        28.9559380823       21.7355807035        9.7137926605
  H        29.1772618564       21.7140858657        6.5143207062
  H        32.2277347390       18.6786747887       10.8492041251
  H        27.3484316565       19.0616242061        8.0669768632
  H        14.8517042818       19.6750408802       12.1035206145
  H        17.0195987587       19.7344584142       13.3411469949
  H        18.3004873618       16.1988695318       11.2539018900
  H        16.1292202336       16.1559119217       10.0149004841
  H        16.9106717030       17.7345748101       14.8149207438
  H        46.0878661876       15.4362081529       12.0627272096
  H        43.9638143738       15.3742891496       13.3693198268
  H        42.5519861157       18.8199936077       11.2152715247
  H        44.6755749716       18.8552868459        9.8966703468
  H        44.0150449740       17.3056752545       14.8407168291
  H        20.2919613586       17.9388995697       11.4033984699
  H        46.0383069577       15.3752935650        4.0437615010
  H        43.9063565563       15.2986405695        2.7529440031
  H        42.5077933801       18.7711297171        4.8709698798
  H        44.6464088058       18.8337639293        6.1632889169
  H        43.9971458642       17.2779484816        1.2894978702
  H        46.1988798922       26.6826083306        4.6233159306
  H        52.7411439386       21.0626532113        8.1946079057
  H        14.8624965481       19.6838723376        3.9106080857
  H        17.0568654476       19.7645426753        2.7154411699
  H        18.3134069999       16.2158111207        4.7945901955
  H        16.1217560658       16.1599240755        6.0009095069
  H        16.9215067643       17.7432398756        1.2634560153
  H        52.3223322172       21.6736398056        6.2947565255
  H        52.0134868907       21.7025614545        9.4954802135
  H        49.0669126839       18.6075561486        5.2042501130
  H        13.2471567302       19.0165651430        7.9759966554
  H        29.9680703903       12.4869716831       12.2176330137
  H        28.9263019081       10.5436382613       13.3998775308
  H        25.2934699823       11.1446357100       11.1768354010
  H        26.3551207585       13.0693670022        9.9849363000
  H        27.2097905552       11.6518177765       14.7822025285
  H        30.9869955069       22.7325398978       12.0057690175
  H        31.9761130589       24.6106932850       13.3168445390
  H        35.6590011361       24.1771004545       11.1364229775
  H        34.6494981854       22.3087273121        9.8182691020
  H        33.6420479687       23.5831100499       14.7559108868
  H        25.7687332914        8.5752347266       11.3828570068
  H        30.9109953496       22.6684177773        3.8916824555
  H        31.9169666884       24.5547039054        2.6081674090
  H        35.5405913787       24.1642717858        4.8941844741
  H        34.5111096444       22.2937345657        6.1899259886
  H        33.6114100576       23.5713501979        1.2028666074
  H        40.5813761550       17.0490646353        4.6604907486
  H        32.5185413541       14.1415467938        8.1639335518
  H        29.8548849012       12.4918722288        3.9686681008
  H        28.8389466863       10.5985493146        2.7008842598
  H        25.1302436138       11.1946362263        4.7955402187
  H        26.1632930878       13.0838577758        6.0681557021
  H        27.1676827513       11.6729559354        1.2292256882
  H        33.2899580054       14.2343373020        6.3527104724
  H        33.4108305737       14.3582322254        9.5343001159
  H        32.0972234579       18.5196984167        5.1136497999
  H        30.1885236432       14.1400815899        8.0635404822
  H        16.1178277119        2.9628738426       12.1290445023
  H        14.9522062411        4.8196845788       13.3217907415
  H        17.3659848394        7.6857071921       11.2109411771
  H        18.5151148210        5.8184182700       10.0111084946
  H        16.7524704171        5.7389169188       14.7715046901
  H        44.8282780493       32.1401248010       11.9765189223
  H        45.9375540124       30.3412923144       13.3060397429
  H        43.6819851109       27.3780573358       11.1527012073
  H        42.5992808766       29.1899002405        9.8099899310
  H        44.2304626863       29.4368543993       14.7688283252
  H        14.8502451553        8.5455403841       11.3633127241
  H        44.9000698990       32.2340106071        3.9321707538
  H        46.0249435137       30.4129909666        2.6525882961
  H        43.7628963824       27.4840586680        4.8448984064
  H        42.6451550965       29.3177571838        6.1240489925
  H        44.2685854719       29.4706291372        1.2181342724
  H        35.0235808962       26.6341711911        4.6325616609
  H        36.6052034064       35.1339385935        8.1806752044
  H        16.1433300262        3.0125928380        3.9043654546
  H        14.9734524345        4.8557956671        2.6886652502
  H        17.3956162843        7.7470123093        4.7549067742
  H        18.5428212258        5.8932241427        5.9826291908
  H        16.7637291743        5.7549363738        1.2192656929
  H        36.2788278558       34.4820322235        6.2733862701
  H        36.3809551080       34.2091004317        9.4997558167
  H        40.5795786521       33.2022379251        5.1540122874
  H        17.4709377329        1.9470792677        7.9740767280
  H        28.6921400527       19.0723121413       12.3013138253
  H        28.6787020054       18.9128415382        3.7159867260
  H        30.6645583461       15.3496038728        3.7842050474
  H        32.4891156808       16.2372936728       12.3100016311
  H        18.8536939960        0.8689744883       12.3352942686
  H        40.5282698597       35.2289835534        3.9521465679
  H        42.3237057134       34.4188633952        3.5903668734
  H        22.0874401724        0.6921149978       12.3516768761
  H        11.5966407546       18.7128874235       12.3825892057
  H        52.2646945241       18.4313141637        3.6774683044
  H        49.2552569401       16.4763283461        3.5840136746
  H        10.1503149112       15.7982749611       12.2926589817
  H        50.8498711066       17.6926585028        3.9540092963
  H        10.0460396810       17.3947317723       12.0519429870
  H        20.2149981052        0.0020471794       12.0419766429
  H        39.1836916560       36.1243074359        3.6863710721
 Ni        30.5258369092       17.5690029786        2.9222253870
 Ni        30.7768489762       18.1627053867       14.6540453083
 Ni        30.5626984075       17.2964363415        0.7496248533
 Ni        30.6038362978       17.6759157073       12.4166546301
  O        10.6497775494       14.3652265989        5.4858095338
  O        12.6130453221       14.6574272314        6.5838454974
  O        49.1476044128       16.8459592082        7.9896676437
  O        50.3500873627       20.9362619616        5.6482407182
  O        48.3484501267       20.5932336205        6.6659420511
  O        11.0508764382       17.0540659538        6.5006443557
  O        50.3206839306       20.8816888524       10.4068590546
  O        48.3465971006       20.5866371663        9.3270190999
  O        49.5433619878       18.2484009383       10.0682778953
  O        12.3588279773       18.6246309695        7.9996511298
  O        48.6931606784       14.1486657830        6.7512844566
  O         8.2098431843       14.2104531851        9.3225460162
  O        10.7352724706       14.5067849754       10.6643531397
  O        12.5717247815       14.5827312891        9.3285490936
  O        22.8442094920        2.0421178094        5.4873661911
  O        21.6048935672        3.5919320823        6.5894558340
  O        42.0578865101       34.1370490047        7.9790848474
  O        37.9813211955       33.1362687241        5.5722108729
  O        39.2170564789       31.5748315407        6.6652062708
  O        20.3083248334        1.0395667984        6.5019556325
  O        38.0241745446       33.1850516262       10.4155090211
  O        39.2177583721       31.5825531106        9.3278254130
  O        40.6521348408       33.7690985241       10.0601848661
  O        18.2557761826        1.3761221636        7.9967848550
  O        44.6222190155       35.1005460082        6.7588553081
  O        24.2054944992       -0.0001122293        9.3207570474
  O        22.7531237838        2.0561770237       10.5828214414
  O        21.6246372015        3.5957645443        9.3424658941
  O        27.4572001300       18.6931254826        5.4867120742
  O        26.6907498408       16.9185928334        6.6709056828
  O        30.6313980785       19.3480904319        7.9961696174
  O        33.5385113816       16.3302951366        5.6554467777
  O        34.2670214651       18.1805228203        6.7414079446
  O        29.5343405432       17.0215037046        6.5714997403
  O        33.5881480620       16.2661807698       10.4103047725
  O        34.2635884551       18.1820445553        9.4017365010
  O        31.6455444462       18.3151782650       10.1592731436
  O        30.2917259585       15.1055397069        8.0698401000
  O        28.5515884854       21.0290483302        6.8137513178
  O        28.5068238555       20.9645783618        9.3270667991
  O        27.4551798833       18.6791606874       10.6559566648
  O        26.6902471136       16.9296805063        9.4165383824
  O        13.1464239038       18.6938484564       10.5861510918
  O        13.9180185595       16.9160172071        9.4040907369
  O        50.5956306369       19.3502542521        8.0205625058
  O        47.6824709038       16.3272465120       10.4175026289
  O        46.9505669228       18.1756887038        9.3253817220
  O        11.0690127491       17.0158777792        9.4895787012
  O        47.6744065591       16.3359087398        5.6527841896
  O        46.9243118897       18.2358279259        6.6628124662
  O        49.5685842272       18.3177619948        5.9822324393
  O        10.3186324567       15.1001947572        7.9971053947
  O        52.6706864592       21.0280039821        9.2418090041
  O        12.1468170359       20.8914106839        6.6733129057
  O        13.1046420441       18.6143624374        5.3262680951
  O        13.9556295559       16.9866684260        6.6651127163
  O        29.9970110570       14.4367434994       10.6616303776
  O        28.0713348128       14.6583878432        9.4860052043
  O        32.0694944661       16.8517484691        8.0586476331
  O        30.9559984905       20.9547239693       10.3290257318
  O        32.9562730782       20.5857476711        9.3246959933
  O        29.5708136639       17.0729602753        9.5757981430
  O        30.8576757213       20.8763942947        5.5893189468
  O        32.8575532190       20.5820962454        6.6549185980
  O        31.6075749848       18.2383095392        5.9052364596
  O        28.2365783328       18.6694457078        8.0576596682
  O        32.4939549601       14.2054407172        9.2422762010
  O        32.4004941474       14.2137853612        6.7443986896
  O        29.8391196762       14.4371369554        5.4855044376
  O        27.9608807124       14.5854564457        6.7515300311
  O        17.8892123965        1.9665443828       10.6628148890
  O        18.9561874466        3.5271538692        9.4080374004
  O        39.1684750786       34.1385177964        7.9972138289
  O        43.2801582353       33.0587690751       10.3316994681
  O        42.0342726137       31.5064115789        9.2415850869
  O        20.3174355859        1.0363677813        9.4801879091
  O        43.2760911031       33.1824997884        5.5748900991
  O        42.0051977281       31.5841065357        6.5830275492
  O        40.5790566189       33.7750524001        5.9360486232
  O        22.3671677400        1.3844385502        7.9979814867
  O        36.6727792011       35.0997384366        9.2333107698
  O        16.4456137129        0.0641226901        6.6682382214
  O        17.9363745816        2.0431925785        5.3264247348
  O        18.9189193798        3.5931345971        6.6658956713
  O        29.6126775642       18.9044918289        3.9969441881
  O        29.6130190600       19.1933092026       11.9988472883
  O        31.2197204246       16.1241837920        4.0013836212
  O        31.5532895989       16.1165914899       12.0685097998
  O        39.4568620885       35.2437332984        4.0020152609
  O        19.1415193495        0.0045034764       11.9905204264
  O        41.9694852824       35.1726866388        4.0871778284
  O        21.6912615824       -0.0694279855       11.8960391319
  O        51.3647648610       18.6143803586        4.0052658963
  O        10.7508764787       18.7472151587       11.9050180304
  O        50.0794578678       16.4127381912        4.0917278050
  O         9.5244011148       16.4831246718       11.9912051083
 Zr         9.2966514626       16.0528877538        6.1821887441
 Zr        49.8362651633       16.0068800172        9.7465976232
 Zr        22.0732465346        0.0296288268        6.1892696705
 Zr        42.4608492993       35.1533207918        9.8010814741
 Zr        29.5515152102       19.0633399097        6.2144765515
 Zr        29.5522000133       19.2060603102        9.7922950177
 Zr        11.0373708347       19.0523862369        9.8277465841
 Zr        11.0433517330       19.1551977976        6.2511428188
 Zr        31.3476331619       16.0435787359        9.8423992244
 Zr        31.3496871749       15.9928812666        6.2413342568
 Zr        18.6011433248       -0.0016774595        9.7636050886
 Zr        18.5065553864       -0.0080085192        6.2135769796
 Zr        12.3011273250       16.3232731048        7.9904473723
 Zr        48.6158937321       18.8329553649        8.0099712320
 Zr        20.3151093028        2.4733383364        7.9907989561
 Zr        40.6427835498       32.6866935816        7.9782216822
 Zr        28.3197437610       16.3270667267        8.0855099908
 Zr        32.6022640818       18.8254842102        8.0178541992
