     569
 i =      128, E =     -4729.5513555341
  C        11.8588186226       14.0535323768        5.7415738084
  C        12.4563571365       12.8906495863        5.0231884887
  C        11.7046076522       12.1716189693        4.0816600196
  C        12.2809749335       11.1094167243        3.3892987383
  C        13.6215854956       10.7397157564        3.6169573192
  C        14.3548346454       11.4434200444        4.5902596292
  C        13.7819524717       12.5084106602        5.2817565635
  C        14.2610799282        9.6490106609        2.8435791092
  C        14.2564012718        9.6569048117        1.4218786763
  C        13.7433823186       10.7591046550        0.6679802696
  C        49.1267838567       21.2332954757        5.8797017446
  C        48.5499986525       22.4012076002        5.1526255545
  C        49.3000539877       23.0685320650        4.1716451967
  C        48.7331305838       24.1076633464        3.4384328622
  C        47.4025862700       24.5093109236        3.6670336005
  C        46.6716097926       23.8604486058        4.6805406081
  C        47.2340627953       22.8155630884        5.4099176020
  C        46.7723261738       25.5869650438        2.8697240825
  C        46.7614125930       25.5574013806        1.4479611546
  C        47.2614798491       24.4423765502        0.7044581554
  C        14.8602683231        8.5705134932        0.7086337052
  C        14.8917064242        8.5969910463        3.5202532972
  C        49.1132724051       21.2035086107       10.1453350684
  C        48.5279428498       22.3649353396       10.8723910902
  C        49.2671261736       23.0255781628       11.8653890742
  C        48.6907854293       24.0601197977       12.5968568646
  C        47.3604076022       24.4569745256       12.3585401222
  C        46.6400668192       23.8121954800       11.3348777680
  C        47.2136434501       22.7763205445       10.6030740109
  C        46.7219015428       25.5318769135       13.1496013961
  C        46.7336575721       25.5282311547       14.5713074704
  C        47.2492208909       24.4290826708       15.3276975290
  C        40.6284625025       17.1084493644       15.3218732522
  C        40.6414273534       17.1549174472       12.5116966846
  C        11.8829959074       14.0865447078       10.2854678729
  C        12.4723169604       12.9107396195       10.9897553741
  C        11.7147574722       12.1774457489       11.9157524197
  C        12.2813373502       11.0949847045       12.5841751026
  C        13.6201913284       10.7213374837       12.3524482818
  C        14.3582216478       11.4370102649       11.3917795612
  C        13.7928102314       12.5181987913       10.7190962007
  C        14.2537355885        9.6245213948       13.1228313410
  C        14.2525716223        9.6445413172       14.5446673384
  C        13.7428070131       10.7535486855       15.2917250887
  C        22.5119952444        3.2431499929        5.7533947378
  C        23.2294098147        4.3461174534        5.0531555099
  C        24.2252944947        4.0605677700        4.1075606525
  C        24.8569829679        5.0964736640        3.4247143932
  C        24.5083383946        6.4397245420        3.6678707747
  C        23.5400608019        6.7168979161        4.6499556848
  C        22.9036090056        5.6825682699        5.3311638550
  C        25.1211311223        7.5419336490        2.8923394173
  C        25.0955821461        7.5345555286        1.4710630297
  C        24.3837844532        6.5418261298        0.7252400048
  C        38.2983155801       31.9278964509        5.8509461606
  C        37.5582417235       30.8398180939        5.1478999665
  C        36.5943278484       31.1471931092        4.1749893015
  C        35.9653746036       30.1297865882        3.4623474722
  C        36.2847944821       28.7782161452        3.6989623417
  C        37.2179057618       28.4783741409        4.7096957036
  C        37.8508605499       29.4946406952        5.4217879546
  C        35.6771570961       27.6892566467        2.8990446171
  C        35.7198758290       27.7028747006        1.4772978382
  C        36.4290162183       28.7059114463        0.7438958028
  C        25.7284503508        8.5989342187        0.7516435404
  C        25.7219272700        8.6144000906        3.5632590380
  C        38.3300155578       31.9611018587       10.1590911020
  C        37.6126936522       30.8880029554       10.9059146528
  C        36.6801044904       31.1964193623       11.9083568316
  C        36.0712081745       30.1783814033       12.6399726600
  C        36.3802843793       28.8254513112       12.3937085413
  C        37.2926440611       28.5270634077       11.3628743872
  C        37.9032363105       29.5414696615       10.6321860379
  C        35.7696327727       27.7257672553       13.1760996958
  C        35.7671109422       27.7215500554       14.5986328189
  C        36.4501411742       28.7158738132       15.3671424883
  C        46.1355376402       26.6208011025       15.2814526137
  C        46.0877827441       26.5801520796       12.4735632046
  C        22.4601799403        3.2555545817       10.2573493432
  C        23.1537101342        4.3645345468       10.9806732466
  C        24.1573979859        4.0781587012       11.9195346620
  C        24.7854176243        5.1080482448       12.6155726674
  C        24.4297835496        6.4538609701       12.3953370185
  C        23.4487843780        6.7336442189       11.4252536467
  C        22.8161824084        5.7037954638       10.7296119251
  C        25.0641992905        7.5496076947       13.1694689846
  C        25.0664197749        7.5380840344       14.5921354661
  C        24.3681212909        6.5443252382       15.3485871263
  C        26.6168915260       17.8617726788        5.7777116099
  C        25.3094918680       17.9120077242        5.0571449956
  C        25.0482893968       18.9102811508        4.1051167391
  C        23.8357562644       18.9295726444        3.4187776042
  C        22.8470150634       17.9550008412        3.6634310463
  C        23.1032573323       16.9808247548        4.6469342703
  C        24.3180905959       16.9552779726        5.3300379889
  C        21.5748042596       17.9395061688        2.8978304652
  C        21.5759916974       17.9185967392        1.4751512083
  C        22.7820175416       17.7967723220        0.7150888845
  C        34.4391003940       17.1912478023        5.9231736704
  C        35.7347895483       17.1393578053        5.1831713820
  C        35.9408982980       16.1638135144        4.1951980222
  C        37.1207005438       16.1483587646        3.4568016654
  C        38.1267531845       17.1066048817        3.6873796389
  C        37.9240035977       18.0621779998        4.7010648366
  C        36.7407708522       18.0834870466        5.4363346229
  C        39.3798888546       17.1120958179        2.8987953295
  C        39.3738850871       17.1228381812        1.4771119553
  C        38.1654217585       17.2431559126        0.7216025922
  C        20.3295242508       17.9347124295        0.7662428816
  C        20.3499209341       17.9406500222        3.5797894091
  C        34.4238995130       17.2278733739       10.2503380230
  C        35.7339289798       17.1559419141       10.9585616693
  C        35.9753016999       16.1586028808       11.9159338952
  C        37.1732993910       16.1403219545       12.6235305378
  C        38.1597142130       17.1187368516       12.3935802262
  C        37.9270613215       18.0893241147       11.4016215506
  C        36.7273315811       18.1116064584       10.6951525588
  C        39.4125242101       17.1367410184       13.1798981660
  C        39.3904771955       17.1361786200       14.6010039593
  C        38.1732790515       17.2477454221       15.3448132305
  C        35.1344483748       26.6411622991       15.2992266564
  C        35.1873647148       26.6524677153       12.4895221904
  C        26.5701520277       17.8300221050       10.3200939231
  C        25.2531104763       17.8740799447       11.0239888444
  C        24.9857951383       18.8833540254       11.9611622183
  C        23.7696456941       18.9074549521       12.6380949302
  C        22.7901629699       17.9227780118       12.3998425606
  C        23.0501281538       16.9396020428       11.4280529511
  C        24.2678161977       16.9131645817       10.7503940018
  C        21.5273619937       17.9044011054       13.1745446097
  C        21.5513598666       17.8988551299       14.5962313642
  C        22.7699484055       17.7872872469       15.3384872476
  C        14.0464358293       17.8288129698       10.2887593818
  C        15.3504707803       17.8854937104       11.0139242218
  C        15.6068975912       18.8879102713       11.9624131252
  C        16.8158104227       18.9081258605       12.6552291189
  C        17.8023997830       17.9287598387       12.4217570102
  C        17.5507569266       16.9507648842       11.4409890420
  C        16.3413133066       16.9258944594       10.7497338669
  C        19.0712757019       17.9116048117       13.1905517901
  C        19.0698682948       17.9105063585       14.6129387256
  C        17.8628221381       17.8112718575       15.3740626099
  C        46.8041138659       17.2188442476       10.1587179845
  C        45.5133680444       17.1570245454       10.9040618416
  C        45.3052882124       16.1767589597       11.8867018844
  C        44.1233295458       16.1584486367       12.6225320352
  C        43.1193735204       17.1209411115       12.3986321069
  C        43.3246517834       18.0808249196       11.3891338559
  C        44.5071017153       18.1025764509       10.6537438359
  C        41.8668212708       17.1319273296       13.1886604498
  C        41.8741414735       17.1228692741       14.6109000993
  C        43.0840732752       17.2118820572       15.3689530421
  C        20.3165824595       17.9239155932       15.3211935957
  C        20.2953272286       17.8910452075       12.5082010559
  C        46.7861016433       17.2305310318        5.8898487192
  C        45.4832423481       17.1223387490        5.1749294019
  C        45.2665044460       16.1215700922        4.2157641601
  C        44.0788896777       16.0920688183        3.4892489628
  C        43.0794326128       17.0602676875        3.7056704062
  C        43.2863964815       18.0307451755        4.7036098823
  C        44.4751625350       18.0666212696        5.4250854054
  C        41.8335675959       17.0807496808        2.9091134456
  C        41.8574860267       17.0949184113        1.4882965272
  C        43.0760847159       17.1963631828        0.7457332491
  C        46.1532972685       26.6372195888        0.7262081913
  C        46.1622460577       26.6560158841        3.5358507808
  C        14.0453597175       17.8317657866        5.7086460340
  C        15.3658717465       17.9063964300        5.0178587991
  C        15.6382293992       18.9216743330        4.0887841995
  C        16.8668513562       18.9594394153        3.4334248415
  C        17.8507299460       17.9811165789        3.6813648344
  C        17.5852422329       16.9948941024        4.6487795800
  C        16.3586198902       16.9565572802        5.3076490265
  C        19.1178213353       17.9571646381        2.9123785379
  C        19.0942181492       17.9330221641        1.4909193634
  C        17.8746622378       17.8213954978        0.7502407719
  C        28.8034741346       14.0941770360       10.3913630999
  C        28.1919972886       12.9204261513       11.0825426931
  C        28.9482065747       12.1111375613       11.9451035998
  C        28.3488448739       11.0379605695       12.6023930794
  C        26.9844988654       10.7440288238       12.4096541382
  C        26.2479355321       11.5322215777       11.5081420549
  C        26.8420970123       12.6097849886       10.8560478746
  C        26.3239432699        9.6560626613       13.1686139131
  C        26.3338571881        9.6709863389       14.5887297758
  C        26.8673045734       10.7701235643       15.3338095494
  C        32.1841416799       21.2375133034       10.1400803273
  C        32.7822358127       22.4017127533       10.8595635236
  C        32.0377526737       23.0760405942       11.8399798975
  C        32.6101180885       24.1130768401       12.5702377490
  C        33.9432625251       24.5060139780       12.3418649213
  C        34.6700315412       23.8511082390       11.3293467630
  C        34.1001399980       22.8080391377       10.6009892192
  C        34.5706465702       25.5810446345       13.1452108507
  C        34.5542596234       25.5534700665       14.5673061565
  C        34.0487399105       24.4354707934       15.3028857629
  C        25.7173937536        8.5969914700       15.3071472664
  C        25.6748202208        8.6151755382       12.4935139751
  C        32.0942722342       21.1758435591        5.8401733257
  C        32.6608217170       22.3466866383        5.1082422601
  C        31.9374495897       22.9793805027        4.0857053794
  C        32.5079369689       24.0276076249        3.3659316884
  C        33.8168092105       24.4695215329        3.6450493261
  C        34.5196442207       23.8502725855        4.6968507991
  C        33.9532977105       22.8013535873        5.4153423060
  C        34.4591197611       25.5548861230        2.8672052287
  C        34.4963052346       25.5405881301        1.4448853635
  C        34.0205039234       24.4296077981        0.6794642944
  C        40.6194294373       17.0975573850        0.7664810556
  C        40.6040106539       17.1078521226        3.5762482088
  C        28.7420430909       14.0633602538        5.8156180625
  C        28.1417108039       12.9097614536        5.0825519939
  C        28.8944902764       12.1933331172        4.1394446734
  C        28.3212075131       11.1336806434        3.4406825071
  C        26.9798031644       10.7633144284        3.6616448768
  C        26.2439020581       11.4653463532        4.6344973519
  C        26.8154269314       12.5260640652        5.3345177388
  C        26.3439113481        9.6710599562        2.8863309618
  C        26.3444802570        9.6799067132        1.4644976593
  C        26.8688809154       10.7764618263        0.7100100633
  C        18.1352855160        3.1808055316       10.3170945020
  C        17.4058501831        4.2780495183       11.0156286017
  C        16.3904154073        3.9996309688       11.9434419385
  C        15.7426435396        5.0395796915       12.6069539964
  C        16.0942292655        6.3833483672       12.3670435087
  C        17.0832076400        6.6529175869       11.4028662197
  C        17.7323233334        5.6156116371       10.7377847642
  C        15.4699610020        7.4910531363       13.1301128315
  C        15.4853096914        7.4903967110       14.5518291754
  C        16.1867308353        6.4967058378       15.3050269788
  C        42.9457164793       31.8594054619       10.0728306861
  C        43.6460148218       30.7717493849       10.8168219723
  C        44.5915535475       31.0930670074       11.8028880902
  C        45.1972435962       30.0875225601       12.5505519383
  C        44.8708012181       28.7344622253       12.3356843981
  C        43.9449092261       28.4201267900       11.3225342661
  C        43.3360997508       29.4252716873       10.5744898359
  C        45.4884627408       27.6551950381       13.1388576891
  C        45.4926568021       27.6808327391       14.5605495430
  C        44.8054303132       28.6887861398       15.3071704047
  C        14.8564419434        8.5629448131       15.2642002377
  C        14.8747861240        8.5629040449       12.4515416667
  C        42.9463540409       31.9614378938        5.8089254642
  C        43.6914845632       30.8853395626        5.0953925384
  C        44.6563207591       31.1912262372        4.1233180447
  C        45.2778095072       30.1716341628        3.4055854232
  C        44.9537810251       28.8213396010        3.6430255225
  C        44.0199763133       28.5236811812        4.6534998848
  C        43.3917252634       29.5404573512        5.3656700445
  C        45.5628841567       27.7239636089        2.8577897396
  C        45.5332047609       27.7173024078        1.4364964986
  C        44.8267186452       28.7074286888        0.6835641169
  C        35.1074547359       26.6333929322        0.7446721654
  C        35.0620339654       26.6164714909        3.5546618897
  C        18.1485009254        3.2468731055        5.7066353161
  C        17.4298181350        4.3437307452        4.9974394811
  C        16.4147578742        4.0524091926        4.0737198013
  C        15.7664084674        5.0830175546        3.3983252453
  C        16.1208892413        6.4282859824        3.6211760356
  C        17.1120508031        6.7117119518        4.5786583904
  C        17.7597408553        5.6828221909        5.2584438979
  C        15.4904717607        7.5239976364        2.8486883467
  C        15.4963312090        7.5073305918        1.4275477005
  C        16.1929825150        6.5055548249        0.6808416137
  H        10.6724397134       12.4656733663        3.9047548856
  H        11.6946633287       10.5508342649        2.6628550826
  H        15.3919278819       11.1689610560        4.7718435753
  H        14.3514878581       13.0718011692        6.0170088200
  H        13.3764792484       11.6312671326        1.2013093346
  H        50.3227755977       22.7485144558        3.9869364114
  H        49.3196439153       24.6229339466        2.6808805796
  H        45.6421143827       24.1612241024        4.8636955425
  H        46.6630463973       22.2903747146        6.1720435469
  H        47.6301076830       23.5760334319        1.2461337871
  H        14.8720241391        8.5882655333        4.6085625229
  H        50.2871434892       22.7026707362       12.0603633468
  H        49.2691610846       24.5755111255       13.3604153501
  H        45.6107135002       24.1095490842       11.1457071081
  H        46.6528790587       22.2543039100        9.8313702222
  H        47.6081005625       23.5519980725       14.7968155909
  H        40.6449850675       17.1309252005       11.4236009457
  H        48.6872309027       14.0949813697        7.8000131760
  H        10.6812550733       12.4664643703       12.0930606282
  H        11.6895178522       10.5244933466       13.2967697888
  H        15.3937090757       11.1592571297       11.2059749209
  H        14.3652338979       13.0877424195        9.9907665666
  H        13.3761058932       11.6222051630       14.7530712472
  H        47.9300894553       14.2188913494        9.7107765999
  H        47.7802173702       14.3744368077        6.4955370787
  H        49.0837164639       18.5524783421       10.8674261008
  H        10.4162411284       14.1343427864        7.9987634727
  H        24.4817275495        3.0205661987        3.9184465513
  H        25.6295608839        4.8752521245        2.6914965334
  H        23.2635391701        7.7512891218        4.8433059466
  H        22.1337919198        5.8865332431        6.0714127822
  H        23.8178198994        5.7889837174        1.2661365571
  H        36.3627576121       32.1914214208        3.9787901736
  H        35.2188392547       30.3735240378        2.7095978525
  H        37.4725957011       27.4379994212        4.9011588094
  H        38.5966933299       29.2688138327        6.1803192380
  H        36.9872840142       29.4584643965        1.2930704618
  H        25.7503736654        8.6006263063        4.6512964754
  H        36.4520017612       32.2404190323       12.1110291929
  H        35.3415408802       30.4241308173       13.4083657700
  H        37.5444567569       27.4871075466       11.1658273423
  H        38.6287094777       29.3148119193        9.8546908071
  H        37.0255749319       29.4756897120       14.8461115875
  H        46.1091421526       26.5875506002       11.3855262085
  H        44.6680609882       35.1160106921        7.8139791398
  H        24.4360462630        3.0399172930       12.0851123523
  H        25.5675752770        4.8791801307       13.3362754356
  H        23.1623098077        7.7680184429       11.2463064910
  H        22.0429910434        5.9165615339        9.9949571813
  H        23.7895812469        5.7940388433       14.8174627147
  H        44.9531520762       34.3898843319        9.6949206735
  H        44.9013037660       34.2065320758        6.4907192840
  H        40.6656113348       33.2085640470       10.8529052075
  H        23.1505159199        1.9572901436        8.0054073872
  H        25.8056747635       19.6679942620        3.9179541404
  H        23.6391672327       19.7091722536        2.6858737466
  H        22.3513112795       16.2197772241        4.8453783560
  H        24.5267893860       16.1888441761        6.0727803044
  H        23.7233988947       17.6790923200        1.2441204147
  H        35.1574360837       15.4312370984        4.0157939616
  H        37.2799141667       15.3849801935        2.6982879038
  H        38.6928192480       18.8104283095        4.8825961300
  H        36.5667915605       18.8366817809        6.2013691144
  H        37.2269611134       17.3655251614        1.2548556904
  H        20.3563269831       17.9805952520        4.6676585996
  H        35.2105219964       15.4076184508       12.0989115185
  H        37.3597268465       15.3643252129       13.3627116985
  H        38.6831632989       18.8501792352       11.2191332601
  H        36.5264672645       18.8764145425        9.9485488875
  H        37.2401909836       17.3730765034       14.8031657262
  H        35.1665931380       26.6783929126       11.4016567219
  H        28.5099626658       21.0794934300        7.8758792504
  H        25.7449363705       19.6415031840       12.1398709899
  H        23.5628330706       19.6939541443       13.3607055920
  H        22.3013380454       16.1735303425       11.2371736712
  H        24.4842270046       16.1426485955       10.0142389044
  H        23.7019154874       17.6626812902       14.7950313991
  H        29.0024236474       21.7267861829        9.7420756051
  H        29.1711225396       21.7355199534        6.5530847232
  H        32.0641931544       18.6357264316       10.9066255753
  H        27.4034585107       19.0676463763        8.0734094483
  H        14.8483788832       19.6467114591       12.1412670968
  H        17.0111885254       19.6916372209       13.3842348371
  H        18.3022292669       16.1869657419       11.2516479931
  H        16.1353578921       16.1575559135       10.0083264098
  H        16.9205445743       17.6939094560       14.8467909121
  H        46.0869463273       15.4425355197       12.0670879101
  H        43.9630161934       15.3902139357       13.3757988504
  H        42.5582302304       18.8324355975       11.2115665375
  H        44.6815188158       18.8581071624        9.8912337557
  H        44.0255117462       17.3259868121       14.8392296327
  H        20.2892308949       17.9190449170       11.4200271694
  H        46.0445280073       15.3819748037        4.0409967908
  H        43.9127999145       15.3158415320        2.7454351265
  H        42.5189844777       18.7823901642        4.8763698594
  H        44.6572924288       18.8346728850        6.1727295156
  H        44.0115432539       17.2974944892        1.2883876922
  H        46.1989844354       26.6825308813        4.6233003833
  H        52.7412959318       21.0627116442        8.1947018407
  H        14.8772595802       19.6749522087        3.8970854989
  H        17.0773851232       19.7496601277        2.7159759648
  H        18.3364204648       16.2333280937        4.8478979245
  H        16.1382145724       16.1822638842        6.0384476273
  H        16.9413170491       17.7118733594        1.2942535273
  H        52.3228123402       21.6734836043        6.2942242153
  H        52.0135716336       21.7023555445        9.4956966626
  H        49.0677445426       18.6079020733        5.2040761173
  H        13.2476381746       19.0161575357        7.9773595776
  H        30.0092453799       12.3214224040       12.0707177091
  H        28.9345197756       10.4104243530       13.2710284677
  H        25.1931402607       11.3134611659       11.3547267006
  H        26.2733007805       13.2398051387       10.1764231815
  H        27.2478662118       11.6312417425       14.7925724206
  H        31.0137979828       22.7615750930       12.0261657657
  H        32.0265288651       24.6330301895       13.3267720267
  H        35.7016783483       24.1443906482       11.1457726383
  H        34.6680761321       22.2785216932        9.8394493452
  H        33.7070650567       23.5612488067       14.7560273284
  H        25.6899122335        8.6058629277       11.4050833282
  H        30.9341917147       22.6264534144        3.8572344499
  H        31.9386754702       24.5184768877        2.5796354268
  H        35.5327951150       24.1782560223        4.9199119476
  H        34.5037969901       22.3023573673        6.2092604934
  H        33.6578971784       23.5500506723        1.2037117723
  H        40.5987375078       17.0726140828        4.6639879086
  H        32.5141111304       14.1543304905        8.2254563693
  H        29.9311840350       12.4771448464        3.9735066492
  H        28.9120789088       10.5742367300        2.7186002202
  H        25.2059212322       11.1910143186        4.8112729362
  H        26.2442828893       13.0846773508        6.0723065621
  H        27.2483755562       11.6433185479        1.2432215343
  H        33.3040732216       14.2221651169        6.4560613904
  H        33.4071611571       14.3671480681        9.6112161683
  H        32.1135234592       18.4896365999        5.0943631433
  H        30.1957648967       14.1504888654        8.0764074435
  H        16.1185770513        2.9631011240       12.1300473081
  H        14.9533753978        4.8201069129       13.3227873322
  H        17.3652500658        7.6858360906       11.2094200798
  H        18.5139645446        5.8182961173       10.0095240025
  H        16.7531489091        5.7392479659       14.7715537786
  H        44.8278330445       32.1401459960       11.9770677020
  H        45.9370982450       30.3412404338       13.3065170841
  H        43.6821123869       27.3780737258       11.1524774249
  H        42.5994308522       29.1899146434        9.8098788841
  H        44.2298714543       29.4363986151       14.7688685403
  H        14.8509493714        8.5461248765       11.3633251562
  H        44.9000579567       32.2338922262        3.9320526894
  H        46.0248702253       30.4127975202        2.6524830540
  H        43.7626918676       27.4839837162        4.8448049799
  H        42.6449328487       29.3176507984        6.1238262304
  H        44.2680299800       29.4701775332        1.2181602335
  H        35.0080719272       26.6317825540        4.6416256720
  H        36.6049526881       35.1339188406        8.1806510745
  H        16.1437867670        3.0128169009        3.9038940714
  H        14.9741696883        4.8561120719        2.6881589521
  H        17.3953347731        7.7472133303        4.7557227029
  H        18.5424022328        5.8932986039        5.9834281376
  H        16.7642590647        5.7551965374        1.2192830822
  H        36.2783267288       34.4823628123        6.2732902336
  H        36.3801781924       34.2093237288        9.4998345549
  H        40.5784946392       33.2011852741        5.1541487210
  H        17.4706721577        1.9467721354        7.9740304476
  H        29.3025060566       19.5405477085       12.5239017808
  H        28.8891143654       18.9570489621        3.6437546095
  H        30.8805956237       15.5088063087        3.7133250159
  H        32.3037407143       16.4782841726       12.2591458221
  H        28.5938261377       18.4684923134       14.7044116374
  H        29.9334201658       14.0935940326       13.5547693188
  H        32.2597497508       16.7192652608        1.2148993842
  H        18.8525710146        0.8686804350       12.3352019539
  H        40.5280165430       35.2292018138        3.9522746363
  H        42.3225531328       34.4176004402        3.5913771442
  H        22.0876774126        0.6920098279       12.3514319534
  H        11.5969844370       18.7128802149       12.3825081258
  H        52.2649503816       18.4316221453        3.6771880332
  H        49.2558847917       16.4770719182        3.5843287275
  H        10.1503085954       15.7982780884       12.2926582606
  H        50.8503695544       17.6923484127        3.9542527114
  H        10.0461806977       17.3946683843       12.0519149960
  H        20.2136290004        0.0019917245       12.0421680182
  H        39.1833980972       36.1241618833        3.6862445428
 Ni        30.5684320684       17.6400910678        2.6659342594
 Ni        30.9044856446       15.7388348403       -0.7486513699
 Ni        30.3981923279       17.8831318772        0.0834654878
 Ni        30.4298173939       17.6326944654       13.3271840917
  O        10.6499878957       14.3650570552        5.4858296149
  O        12.6132119199       14.6575043822        6.5838847316
  O        49.1478984932       16.8459128071        7.9897564045
  O        50.3502114563       20.9360117186        5.6481551059
  O        48.3485390603       20.5932833524        6.6659308556
  O        11.0517815090       17.0539053105        6.5007233939
  O        50.3210226132       20.8816615387       10.4068494456
  O        48.3467434820       20.5867742360        9.3271455319
  O        49.5436026933       18.2483956913       10.0682856509
  O        12.3590357428       18.6246697015        7.9997300265
  O        48.6932808715       14.1485343271        6.7513182605
  O         8.2098520996       14.2104670015        9.3226049922
  O        10.7353744792       14.5067560439       10.6643325740
  O        12.5718277282       14.5828024723        9.3285013435
  O        22.8443591014        2.0421224930        5.4873877633
  O        21.6057864375        3.5924004518        6.5893309244
  O        42.0578883658       34.1370096013        7.9789692745
  O        37.9813781095       33.1370097794        5.5724308379
  O        39.2171115939       31.5752083697        6.6656413783
  O        20.3082182990        1.0392559436        6.5019923400
  O        38.0245753223       33.1853435769       10.4154064470
  O        39.2188345656       31.5834858353        9.3268874499
  O        40.6521286554       33.7691153259       10.0601693368
  O        18.2554901589        1.3757760191        7.9967608998
  O        44.6222487719       35.1004728165        6.7587574014
  O        24.2053333430        0.0000244385        9.3208637069
  O        22.7529677107        2.0578812648       10.5838093955
  O        21.6242683237        3.5961072343        9.3423493184
  O        27.4970113908       18.7514930684        5.4889610525
  O        26.7612430504       16.9375234105        6.6491880948
  O        30.6624427267       19.4049927793        7.9999275403
  O        33.5869669992       16.2749349117        5.6683596408
  O        34.2721701197       18.1671404544        6.7377285120
  O        29.5752771594       17.0526458380        6.5820629611
  O        33.5387361027       16.3427488377       10.5666918111
  O        34.2670066220       18.1684606391        9.4102599679
  O        31.6492644875       18.3179232056       10.0880809243
  O        30.2953960842       15.1158085259        8.0802708189
  O        28.5557835555       21.0318796684        6.8273830234
  O        28.5144506681       20.9570593418        9.4034580132
  O        27.4540941211       18.6804241972       10.6533246350
  O        26.6946043499       16.9269355526        9.4102120022
  O        13.1484660262       18.6929302275       10.5873368630
  O        13.9191720781       16.9161897447        9.4048944006
  O        50.5962495719       19.3502365049        8.0205115185
  O        47.6823042108       16.3272158322       10.4174421102
  O        46.9512901941       18.1759781153        9.3248075963
  O        11.0697103023       17.0155824550        9.4895928483
  O        47.6768496415       16.3354126835        5.6534280823
  O        46.9271508227       18.2357206819        6.6644524295
  O        49.5687859645       18.3177297141        5.9823064425
  O        10.3187813390       15.1001742248        7.9971108149
  O        52.6707745286       21.0278918479        9.2418158376
  O        12.1468402509       20.8912438093        6.6732658483
  O        13.1078656647       18.6137299149        5.3256851538
  O        13.9571424425       16.9870894189        6.6653807099
  O        29.9883081307       14.4449166849       10.7340621680
  O        28.0857595101       14.6524558843        9.4959630146
  O        32.0765005354       16.8537901238        8.0662464472
  O        30.9682999601       20.9515703345       10.4046397181
  O        32.9498519041       20.5941430228        9.3339404080
  O        29.5626941748       17.0705033467        9.5758062464
  O        30.8869624194       20.8287336257        5.5793508404
  O        32.8722159920       20.5853886255        6.6625547581
  O        31.6808559942       18.2408727596        5.9280269626
  O        28.2911454057       18.6741704689        8.0637540299
  O        32.4902871564       14.2153357116        9.3212766029
  O        32.4054677763       14.2143722424        6.8264940537
  O        29.9165998809       14.4375560665        5.4811545284
  O        28.0381640353       14.5863937196        6.7468383291
  O        17.8891878099        1.9665268071       10.6628100521
  O        18.9562024179        3.5270535177        9.4079575837
  O        39.1686006021       34.1386392881        7.9970903205
  O        43.2801588906       33.0588785121       10.3316560561
  O        42.0344181411       31.5064507615        9.2415354684
  O        20.3174043404        1.0364911222        9.4803084958
  O        43.2760741802       33.1824996990        5.5748964543
  O        42.0052372086       31.5840639896        6.5829877248
  O        40.5788479730       33.7747020637        5.9356747643
  O        22.3671406165        1.3844734784        7.9979773345
  O        36.6727411003       35.0997022545        9.2332867967
  O        16.4455304581        0.0641420613        6.6682775571
  O        17.9364858016        2.0433384284        5.3263781615
  O        18.9190756579        3.5930763445        6.6659415210
  O        29.7707889444       18.7618377395        4.0082094888
  O        29.7945152043       18.9073634103       11.9718445621
  O        31.2552320208       16.3324900965        4.0771109961
  O        31.3521255266       16.3445539151       12.0798845213
  O        31.2978286142       16.5605337752        1.1618484877
  O        30.7949930437       14.5060687277       13.7494446286
  O        29.5240463708       18.7611925279       14.6633716277
  O        39.4568127327       35.2436905394        4.0019591620
  O        19.1406443183        0.0042171897       11.9906069581
  O        41.9696246714       35.1727418691        4.0871508512
  O        21.6912490812       -0.0693796733       11.8958000091
  O        51.3650800145       18.6143940142        4.0054087883
  O        10.7511717717       18.7471640205       11.9049741843
  O        50.0802563827       16.4127660496        4.0916624416
  O         9.5244326387       16.4831510074       11.9911834334
 Zr         9.2975901934       16.0527847998        6.1825071534
 Zr        49.8366238490       16.0068848844        9.7463553609
 Zr        22.0728693359        0.0289875194        6.1892248990
 Zr        42.4604856742       35.1528270423        9.8007790166
 Zr        29.6108957562       19.0620401182        6.2163861127
 Zr        29.5714373975       19.1853972751        9.8394578625
 Zr        11.0383851368       19.0520313722        9.8278489203
 Zr        11.0443139353       19.1549071707        6.2508763466
 Zr        31.3284023109       16.0938635787        9.8311686057
 Zr        31.3762416240       16.0089060628        6.2344818075
 Zr        18.6006025265       -0.0022303895        9.7633907065
 Zr        18.5061232167       -0.0084744374        6.2133768025
 Zr        12.3026261292       16.3237067490        7.9903352608
 Zr        48.6170112449       18.8333274529        8.0103249730
 Zr        20.3145272100        2.4725748903        7.9904588448
 Zr        40.6424919217       32.6861272477        7.9779208023
 Zr        28.3387176924       16.3429093889        8.0780405911
 Zr        32.6100862592       18.8387755500        8.0277995546
  H        29.8838923073       18.5070573709        1.5268792066
  H        30.9939822319       15.1311443343       12.9409035940
  H        31.3914898142       17.1536173988       14.5727083189
