     569
 i =      116, E =     -4729.5355537485
  C        11.8587588243       14.0535179411        5.7415762621
  C        12.4562745228       12.8905797061        5.0232004795
  C        11.7045574276       12.1716624455        4.0815712858
  C        12.2809252662       11.1094605166        3.3891978899
  C        13.6215028078       10.7396888585        3.6169129881
  C        14.3547156104       11.4433064925        4.5903048636
  C        13.7818379785       12.5082846915        5.2818204766
  C        14.2609946719        9.6489740207        2.8435570107
  C        14.2563957855        9.6569040518        1.4218614732
  C        13.7433741108       10.7590986929        0.6679614247
  C        49.1266990506       21.2333485487        5.8797126215
  C        48.5498796622       22.4012061463        5.1526065538
  C        49.2999710041       23.0686317040        4.1717192538
  C        48.7330295960       24.1077414479        3.4384962693
  C        47.4024232831       24.5092488074        3.6669835300
  C        46.6713850960       23.8602602357        4.6803618963
  C        47.2338593115       22.8153909121        5.4097459801
  C        46.7721895186       25.5869266830        2.8696839753
  C        46.7613164834       25.5573780781        1.4479210134
  C        47.2614003574       24.4423531389        0.7044270755
  C        14.8602356417        8.5704935564        0.7086248213
  C        14.8915661998        8.5969264484        3.5202304758
  C        49.1132345138       21.2035100185       10.1453784742
  C        48.5278846630       22.3648848812       10.8724794404
  C        49.2671137306       23.0256482583       11.8653657898
  C        48.6907429227       24.0602055275       12.5967872742
  C        47.3603126757       24.4569327237       12.3585488299
  C        46.6399249826       23.8119973587       11.3350238627
  C        47.2135089853       22.7760988180       10.6032634738
  C        46.7217966237       25.5318399818       13.1495855422
  C        46.7335953180       25.5282246435       14.5712862939
  C        47.2491488281       24.4290648764       15.3276664533
  C        40.6293167176       17.1289712707       15.3242568641
  C        40.6429819152       17.1716394074       12.5143040240
  C        11.8829315114       14.0865575070       10.2855243684
  C        12.4722420900       12.9107121103       10.9898010525
  C        11.7146961769       12.1775027529       11.9158647619
  C        12.2812519000       11.0950151239       12.5842676244
  C        13.6200552525       10.7212636512       12.3524357307
  C        14.3580669308       11.4368749510       11.3917067144
  C        13.7926874570       12.5180912067       10.7190450615
  C        14.2536354425        9.6244650140       13.1228159786
  C        14.2525201330        9.6445075933       14.5446558068
  C        13.7428061618       10.7535469594       15.2917063577
  C        22.5119015676        3.2428559464        5.7541342535
  C        23.2293783211        4.3461776503        5.0549630661
  C        24.2267969511        4.0613514105        4.1108827656
  C        24.8577866302        5.0978645530        3.4284637346
  C        24.5066231568        6.4405126931        3.6708936254
  C        23.5372290444        6.7170821864        4.6519060571
  C        22.9014881861        5.6821477992        5.3326284616
  C        25.1178672734        7.5428834468        2.8949561618
  C        25.0918134332        7.5344156460        1.4738994192
  C        24.3798444617        6.5409547753        0.7292379199
  C        38.2976882827       31.9277552541        5.8511782582
  C        37.5560504576       30.8399355646        5.1490367744
  C        36.5908787360       31.1479366473        4.1774972924
  C        35.9600487188       30.1310567228        3.4657111709
  C        36.2786475626       28.7790835393        3.7014208388
  C        37.2129601008       28.4785976613        4.7109187328
  C        37.8477120943       29.4943819421        5.4223304306
  C        35.6694006805       27.6909841453        2.9011259553
  C        35.7116579418       27.7056463657        1.4792999243
  C        36.4213429031       28.7087731081        0.7465464130
  C        25.7240203477        8.5984960276        0.7537182935
  C        25.7171740545        8.6165159621        3.5650445068
  C        38.3301185007       31.9612069970       10.1594778104
  C        37.6127248945       30.8887600459       10.9071222239
  C        36.6795841625       31.1983067407       11.9087584998
  C        36.0697540576       30.1811727351       12.6408512919
  C        36.3783576692       28.8278768444       12.3959507914
  C        37.2917547823       28.5283597539       11.3663157344
  C        37.9032068553       29.5418776853       10.6350652264
  C        35.7657955379       27.7289221029       13.1779667495
  C        35.7607301360       27.7251723721       14.6005288483
  C        36.4432801676       28.7191944880       15.3698295006
  C        46.1354702677       26.6207941253       15.2814208072
  C        46.0876557255       26.5800845190       12.4735300984
  C        22.4587027162        3.2550125699       10.2575626476
  C        23.1494287430        4.3642226291       10.9824635818
  C        24.1520356927        4.0784839728       11.9225221041
  C        24.7775613465        5.1089081107       12.6197429867
  C        24.4201970527        6.4541236985       12.3990330710
  C        23.4399633751        6.7332631931       11.4280976319
  C        22.8098049091        5.7028763185       10.7313840764
  C        25.0534530866        7.5501580985       13.1727991082
  C        25.0589075479        7.5375120103       14.5953163662
  C        24.3622738578        6.5432271258       15.3526867367
  C        26.6020853848       17.8560351391        5.7861169142
  C        25.2967690125       17.8984081008        5.0623115045
  C        25.0316833399       18.9003272646        4.1151899232
  C        23.8213902376       18.9149613898        3.4252693420
  C        22.8389110136       17.9326935093        3.6628942552
  C        23.0988727879       16.9540982565        4.6408717107
  C        24.3121852438       16.9326351856        5.3269537513
  C        21.5680369457       17.9169731593        2.8958634416
  C        21.5713897126       17.8996787048        1.4734228383
  C        22.7786267607       17.7792979409        0.7151127855
  C        34.4387751013       17.1898502381        5.9231173032
  C        35.7343212308       17.1408145215        5.1828136378
  C        35.9393766699       16.1701503529        4.1898931111
  C        37.1194671833       16.1572317942        3.4519021299
  C        38.1264987418       17.1129753758        3.6882902194
  C        37.9247142014       18.0635002918        4.7068394479
  C        36.7410835519       18.0826407996        5.4413122782
  C        39.3798279651       17.1214666157        2.9004287924
  C        39.3742798585       17.1387504158        1.4789204163
  C        38.1662205383       17.2638700816        0.7236569145
  C        20.3260458446       17.9188687907        0.7629864856
  C        20.3427815653       17.9181475345        3.5764638219
  C        34.4272708442       17.2273189856       10.2489627891
  C        35.7373378332       17.1595329226       10.9571146835
  C        35.9772810898       16.1698397755       11.9226809748
  C        37.1741673678       16.1570057933       12.6321985114
  C        38.1613212447       17.1331989051       12.3955611943
  C        37.9300689200       18.0959012595       11.3956220097
  C        36.7311993530       18.1130176687       10.6875626079
  C        39.4137832409       17.1558419056       13.1821701112
  C        39.3915098017       17.1584680474       14.6032566829
  C        38.1744112725       17.2718950864       15.3469053217
  C        35.1266366926       26.6450910034       15.3003649396
  C        35.1842300552       26.6556961303       12.4906876511
  C        26.5722759749       17.8286897211       10.3223887186
  C        25.2557923032       17.8719896095       11.0271060346
  C        24.9882506808       18.8784670632       11.9671314881
  C        23.7714979114       18.9009540497       12.6429893856
  C        22.7920613917       17.9172589370       12.4006614310
  C        23.0523660789       16.9368192771       11.4262658220
  C        24.2704806351       16.9121182440       10.7497003790
  C        21.5284178965       17.8971857428       13.1734347112
  C        21.5507807733       17.8871280358       14.5949695046
  C        22.7684011429       17.7727856098       15.3384879227
  C        14.0465728583       17.8292109736       10.2878099013
  C        15.3516403530       17.8863069667       11.0110205650
  C        15.6099070952       18.8892350776       11.9583799379
  C        16.8194236676       18.9083912103       12.6502126318
  C        17.8043555955       17.9274981116       12.4164526656
  C        17.5513120726       16.9496091724       11.4360675043
  C        16.3412648893       16.9257304983       10.7459987995
  C        19.0725752860       17.9073030877       13.1859976305
  C        19.0692753833       17.9020984819       14.6082616847
  C        17.8609515926       17.8029582637       15.3674355047
  C        46.8043420496       17.2199305744       10.1595996108
  C        45.5143769149       17.1616328761       10.9062884046
  C        45.3059213799       16.1858609904       11.8933098947
  C        44.1242821808       16.1719909235       12.6298427673
  C        43.1209454388       17.1343355664       12.4020175135
  C        43.3267946575       18.0897202754       11.3884044309
  C        44.5089338749       18.1072383780       10.6525911921
  C        41.8682455696       17.1495012732       13.1916264463
  C        41.8752143610       17.1426597594       14.6138137834
  C        43.0849568805       17.2311031807       15.3722540147
  C        20.3150297750       17.9115389815       15.3181326574
  C        20.2973939845       17.8872092240       12.5051865670
  C        46.7861130021       17.2304583882        5.8902415476
  C        45.4829226269       17.1229437571        5.1763499150
  C        45.2656641668       16.1242738182        4.2151535365
  C        44.0778367858       16.0969251662        3.4889323433
  C        43.0788572841       17.0650021913        3.7079863619
  C        43.2860519305       18.0327606455        4.7084669551
  C        44.4750873869       18.0667413258        5.4293840645
  C        41.8332897364       17.0887499383        2.9113070972
  C        41.8577824142       17.1086805079        1.4906932157
  C        43.0766528847       17.2124194616        0.7489507106
  C        46.1532433383       26.6372215184        0.7261717165
  C        46.1620864368       26.6559581791        3.5358134641
  C        14.0437488415       17.8298014044        5.7077386457
  C        15.3625300973       17.8995918411        5.0140860638
  C        15.6366844323       18.9140928764        4.0849075380
  C        16.8645229719       18.9476388450        3.4281095375
  C        17.8447936874       17.9656323068        3.6751043991
  C        17.5771343371       16.9793929546        4.6417033426
  C        16.3514563181       16.9453771814        5.3020638793
  C        19.1118853290       17.9389131975        2.9072543758
  C        19.0899046039       17.9176753752        1.4859518090
  C        17.8709972653       17.8100573490        0.7436715151
  C        28.7994922513       14.0916270297       10.3951736206
  C        28.1839577350       12.9205892351       11.0874717864
  C        28.9455842234       12.0864929086       11.9216317758
  C        28.3427561058       11.0152028540       12.5791315556
  C        26.9701281478       10.7464224730       12.4123600324
  C        26.2265691491       11.5593603870       11.5394582532
  C        26.8240201799       12.6359577882       10.8883035333
  C        26.3107439157        9.6569762817       13.1705954318
  C        26.3267207145        9.6697786361       14.5902527157
  C        26.8658506913       10.7667902182       15.3341054941
  C        32.1854152914       21.2400994814       10.1363315742
  C        32.7826932434       22.4049079706       10.8559365969
  C        32.0369842346       23.0770100634       11.8370059499
  C        32.6074632978       24.1143543699       12.5682950970
  C        33.9401474948       24.5094727905       12.3408730132
  C        34.6681863017       23.8564037190       11.3279891291
  C        34.1000438650       22.8132694641       10.5981811073
  C        34.5658961238       25.5846059099       13.1454585262
  C        34.5468274890       25.5576511803       14.5676220784
  C        34.0397381270       24.4400641756       15.3027078693
  C        25.7110885715        8.5961186404       15.3094805235
  C        25.6603637941        8.6173323181       12.4957947623
  C        32.0913276855       21.1722215583        5.8394082113
  C        32.6557763529       22.3443220803        5.1067395473
  C        31.9307836562       22.9776247159        4.0856708985
  C        32.4994554675       24.0275937114        3.3666970338
  C        33.8082127952       24.4706731437        3.6448844479
  C        34.5125675723       23.8507090394        4.6952663497
  C        33.9480242637       22.8003081904        5.4130277928
  C        34.4496497651       25.5573260827        2.8678110370
  C        34.4866057613       25.5441941552        1.4454280227
  C        34.0102355349       24.4340166561        0.6792423355
  C        40.6199582756       17.1147799735        0.7686579974
  C        40.6036608768       17.1134902093        3.5782510291
  C        28.7384561743       14.0603678835        5.8201449845
  C        28.1345717625       12.9099742644        5.0848433014
  C        28.8881383703       12.1936321285        4.1425192841
  C        28.3150949977       11.1346835584        3.4428278266
  C        26.9732071564       10.7657711389        3.6621010257
  C        26.2357985112       11.4686818500        4.6330800063
  C        26.8073462531       12.5286459776        5.3343313962
  C        26.3386844614        9.6727418320        2.8872826117
  C        26.3406091484        9.6797490688        1.4655436847
  C        26.8683384841       10.7742201255        0.7102622338
  C        18.1352446211        3.1807571043       10.3171127003
  C        17.4057763132        4.2779938258       11.0156527722
  C        16.3904676635        3.9995484146       11.9435892527
  C        15.7426542990        5.0394837220       12.6070865506
  C        16.0940736191        6.3832676232       12.3670211619
  C        17.0828917223        6.6528588007       11.4026811144
  C        17.7320430655        5.6155643768       10.7376183783
  C        15.4698396437        7.4909782688       13.1301021472
  C        15.4852579762        7.4903574304       14.5518199005
  C        16.1867330925        6.4967046862       15.3050225840
  C        42.9457207567       31.8593412824       10.0727653620
  C        43.6460081587       30.7716986687       10.8167384259
  C        44.5916059491       31.0930070852       11.8027552968
  C        45.1972564818       30.0874522244       12.5504303725
  C        44.8707107206       28.7344029005       12.3356362505
  C        43.9447832639       28.4200801959       11.3225144194
  C        43.3360083757       29.4252307367       10.5744529899
  C        45.4883681045       27.6551462233       13.1388189383
  C        45.4926140898       27.6808326512       14.5605077065
  C        44.8053970755       28.6887941326       15.3071260574
  C        14.8564412174        8.5629377156       15.2641907406
  C        14.8745956786        8.5627919555       12.4515255213
  C        42.9463422854       31.9613903171        5.8089197163
  C        43.6914397706       30.8853019666        5.0953802415
  C        44.6562865084       31.1911876150        4.1233082521
  C        45.2777569290       30.1715908027        3.4055737304
  C        44.9536823873       28.8213000356        3.6429848433
  C        44.0198430587       28.5236420292        4.6534267088
  C        43.3916081892       29.5404213656        5.3656042702
  C        45.5627831810       27.7239335312        2.8577475829
  C        45.5331488569       27.7173008719        1.4364564772
  C        44.8266988908       28.7074476246        0.6835189334
  C        35.0985269553       26.6370433502        0.7458785749
  C        35.0536266455       26.6180066128        3.5559583376
  C        18.1483861014        3.2468270525        5.7066274514
  C        17.4296067569        4.3436710037        4.9974908253
  C        16.4146439339        4.0523412418        4.0736726656
  C        15.7663092385        5.0829459015        3.3982537965
  C        16.1207291215        6.4282152539        3.6211732162
  C        17.1117556348        6.7116524575        4.5787885244
  C        17.7594227829        5.6827669200        5.2585919225
  C        15.4903400217        7.5239314475        2.8486801800
  C        15.4963015940        7.5073155081        1.4275425425
  C        16.1929637615        6.5055474055        0.6808380206
  H        10.6724153359       12.4657863785        3.9046103315
  H        11.6946194316       10.5509363810        2.6627025901
  H        15.3917718518       11.1687570602        4.7719585690
  H        14.3513121064       13.0715983552        6.0171789466
  H        13.3764552085       11.6312570758        1.2012840010
  H        50.3227396852       22.7487161832        3.9871047342
  H        49.3195558560       24.6231011047        2.6810139307
  H        45.6418239454       24.1608893213        4.8633887032
  H        46.6627886474       22.2900824303        6.1717486712
  H        47.6299814820       23.5759905080        1.2461071449
  H        14.8717768002        8.5881535430        4.6085356987
  H        50.2871772703       22.7028484785       12.0602758443
  H        49.2691225207       24.5757113278       13.3602667625
  H        45.6105162704       24.1092165729       11.1459424483
  H        46.6527006010       22.2539489540        9.8316840337
  H        47.6079996462       23.5519721281       14.7967759918
  H        40.6468256363       17.1440433569       11.4262940421
  H        48.6870973856       14.0949652137        7.7999660390
  H        10.6812212129       12.4665856090       12.0932251859
  H        11.6894361496       10.5245864170       13.2969170588
  H        15.3935141979       11.1590178992       11.2058276365
  H        14.3650640421       13.0875576919        9.9906189756
  H        13.3760634204       11.6221790347       14.7530357136
  H        47.9300799999       14.2185486548        9.7109166472
  H        47.7801848302       14.3741376667        6.4953434354
  H        49.0836302581       18.5525482736       10.8674557902
  H        10.4160603856       14.1343199353        7.9988126815
  H        24.4846615960        3.0215765106        3.9224918996
  H        25.6314906103        4.8777530967        2.6961032731
  H        23.2592738797        7.7512256233        4.8444949155
  H        22.1305350791        5.8850339081        6.0719671579
  H        23.8149458899        5.7880073260        1.2710981045
  H        36.3597066086       32.1923084134        3.9815934807
  H        35.2126734897       30.3755995725        2.7140506707
  H        37.4672392383       27.4380503838        4.9020250164
  H        38.5943042326       29.2676881750        6.1798714468
  H        36.9796793858       29.4608938293        1.2962202890
  H        25.7451411863        8.6040922201        4.6530951208
  H        36.4516183596       32.2425442018       12.1103218767
  H        35.3394772038       30.4279124967       13.4083511072
  H        37.5434243664       27.4881492505       11.1704190818
  H        38.6291755005       29.3141949655        9.8583259786
  H        37.0193550099       29.4789698018       14.8494422338
  H        46.1089497010       26.5874292802       11.3854915656
  H        44.6680698741       35.1159922637        7.8139317816
  H        24.4317626440        3.0404950820       12.0878170507
  H        25.5592717225        4.8811372195       13.3412631786
  H        23.1523331599        7.7673480713       11.2493944259
  H        22.0371150820        5.9144408389        9.9958801699
  H        23.7830780941        5.7928748867       14.8224108100
  H        44.9531125082       34.3898150860        9.6948440317
  H        44.9013393987       34.2065229393        6.4906985966
  H        40.6656659514       33.2084976605       10.8528661479
  H        23.1504755976        1.9570970788        8.0056413786
  H        25.7835643453       19.6652848842        3.9350990686
  H        23.6211848346       19.6970280750        2.6959851998
  H        22.3511384945       16.1872584927        4.8328375824
  H        24.5249338302       16.1632306663        6.0655322786
  H        23.7191208110       17.6606627974        1.2455480285
  H        35.1550465462       15.4395229023        4.0061841691
  H        37.2777331749       15.3980483336        2.6890095802
  H        38.6944480440       18.8097740929        4.8925146934
  H        36.5675035455       18.8321042944        6.2100609820
  H        37.2276855614       17.3863044938        1.2567558003
  H        20.3478618899       17.9558604171        4.6643963578
  H        35.2118019365       15.4209655325       12.1111326075
  H        37.3589909612       15.3871823166       13.3782079046
  H        38.6866215214       18.8550277353       11.2078926493
  H        36.5313175192       18.8722946382        9.9350869945
  H        37.2414499728       17.3998933749       14.8055943165
  H        35.1655333465       26.6812834267       11.4027803560
  H        28.5083733761       21.0916518076        7.8780282152
  H        25.7467895841       19.6365420423       12.1484921347
  H        23.5641204392       19.6853437068       13.3677165782
  H        22.3032203993       16.1718873674       11.2322595126
  H        24.4871757841       16.1443940225       10.0107252508
  H        23.7010203370       17.6491776395       14.7959478809
  H        28.9966128755       21.7287095051        9.7493265293
  H        29.1667942262       21.7363590247        6.5444028811
  H        32.0990584998       18.6370648437       10.8960710064
  H        27.3999423305       19.0722880248        8.0795722054
  H        14.8522517035       19.6488574759       12.1374431916
  H        17.0163676726       19.6918298767       13.3788806244
  H        18.3018573973       16.1849498068       11.2465605002
  H        16.1336364422       16.1573426188       10.0051285739
  H        16.9192315664       17.6886574447       14.8385066904
  H        46.0868764977       15.4515221895       12.0763623801
  H        43.9635909403       15.4071721082       13.3864998748
  H        42.5609545799       18.8412156618       11.2078934940
  H        44.6837845881       18.8594248824        9.8869106358
  H        44.0264752293       17.3463741064       14.8429271286
  H        20.2927833080       17.9184884700       11.4170920779
  H        46.0434437155       15.3848725002        4.0384780256
  H        43.9112376731       15.3227218710        2.7431206283
  H        42.5187091097       18.7839899469        4.8832881202
  H        44.6577445839       18.8329955740        6.1787146713
  H        44.0119010764       17.3121205089        1.2922373232
  H        46.1987598034       26.6824184083        4.6232657466
  H        52.7412640764       21.0626761227        8.1947057716
  H        14.8779661851       19.6700097298        3.8946903012
  H        17.0774276396       19.7373363665        2.7107954747
  H        18.3259299636       16.2150726614        4.8391676217
  H        16.1286739729       16.1716956519        6.0327499580
  H        16.9368053314       17.7011338213        1.2863693859
  H        52.3226580765       21.6734601835        6.2942968773
  H        52.0134671016       21.7023069810        9.4956601133
  H        49.0674513392       18.6079252172        5.2042459424
  H        13.2475486385       19.0161291744        7.9769412608
  H        30.0124352660       12.2753373632       12.0259165486
  H        28.9322818955       10.3688561557       13.2262428168
  H        25.1651739234       11.3596917358       11.4069119733
  H        26.2507535907       13.2843094398       10.2298915146
  H        27.2489884662       11.6256626044       14.7911812138
  H        31.0138733672       22.7596831998       12.0231159907
  H        32.0227165663       24.6327256153       13.3250166945
  H        35.6995534999       24.1511353050       11.1451634323
  H        34.6690824311       22.2852778190        9.8363738757
  H        33.6982314904       23.5660408014       14.7554710119
  H        25.6714125568        8.6097422461       11.4073209689
  H        30.9275374308       22.6240447598        3.8577907281
  H        31.9287109040       24.5187981272        2.5816711484
  H        35.5256578015       24.1792724286        4.9177613164
  H        34.4998923820       22.3010854563        6.2058407221
  H        33.6467035831       23.5545599690        1.2029542087
  H        40.5980156386       17.0733551755        4.6658139077
  H        32.5162442543       14.1510220643        8.2306392249
  H        29.9250457545       12.4772942071        3.9777405635
  H        28.9066771339       10.5747335005        2.7217244981
  H        25.1972359356       11.1952244988        4.8077799844
  H        26.2359575176       13.0878952039        6.0714847114
  H        27.2515559606       11.6396958544        1.2430381819
  H        33.3037202025       14.2190238744        6.4532549009
  H        33.4078257023       14.3670985435        9.6136762941
  H        32.1257741776       18.4857708617        5.1087060094
  H        30.1928950419       14.1451487091        8.0786775171
  H        16.1187555387        2.9630028994       12.1302927777
  H        14.9534781233        4.8199746435       13.3230114065
  H        17.3647416117        7.6858018285       11.2090799025
  H        18.5135210048        5.8182583658       10.0091826802
  H        16.7531287168        5.7392283990       14.7715489567
  H        44.8279426995       32.1400766930       11.9769013178
  H        45.9371492692       30.3411460127       13.3063661579
  H        43.6819117748       27.3780372620       11.1525115086
  H        42.5992881841       29.1898718166        9.8098934110
  H        44.2298295146       29.4364046153       14.7688309774
  H        14.8506433653        8.5459575390       11.3633100498
  H        44.9000398486       32.2338504029        3.9320472324
  H        46.0248308536       30.4127422878        2.6524817187
  H        43.7624990761       27.4839514084        4.8446878802
  H        42.6447682671       29.3176037769        6.1237128817
  H        44.2680010355       29.4701894964        1.2181141810
  H        35.0002599529       26.6322148137        4.6429721657
  H        36.6049299581       35.1338930035        8.1806806892
  H        16.1437426601        3.0127391463        3.9037831995
  H        14.9741326883        4.8560236783        2.6880254485
  H        17.3949322255        7.7471634326        4.7559500717
  H        18.5419848692        5.8932329845        5.9836854028
  H        16.7642260516        5.7551814047        1.2192798425
  H        36.2781640933       34.4824399262        6.2732567975
  H        36.3800718333       34.2093553420        9.4998768309
  H        40.5782904733       33.2009241280        5.1542083065
  H        17.4705571723        1.9466118273        7.9740359208
  H        29.1649214056       19.5719462741       12.5093974664
  H        28.6813326888       18.8205081986        3.8158855536
  H        30.9034649171       15.4636509135        3.7350931070
  H        32.3070136184       16.4254594423       12.2582599690
  H        28.4556338455       18.4560854165       14.7687754248
  H        29.7479658477       13.9373125696       13.7234446807
  H        32.2094252761       16.8175327351        1.4772627941
  H        18.8531741113        0.8688909671       12.3352673984
  H        40.5279215246       35.2292796902        3.9522758370
  H        42.3224819257       34.4174560514        3.5914504510
  H        22.0878783426        0.6919185431       12.3513763619
  H        11.5968500172       18.7129963759       12.3826230841
  H        52.2649789041       18.4314033578        3.6773744949
  H        49.2552431608       16.4772174945        3.5846113730
  H        10.1502613378       15.7982419656       12.2925600363
  H        50.8502231686       17.6924944684        3.9542532624
  H        10.0461114878       17.3946236523       12.0519139952
  H        20.2143598083        0.0021425547       12.0420715182
  H        39.1833782333       36.1243377269        3.6863780222
 Ni        30.4421140805       17.6164857556        2.8283154175
 Ni        30.9433730355       16.0598029348       -1.2513144682
 Ni        30.3551450540       17.8069676188        0.1690520583
 Ni        30.4367959291       17.7254797010       13.2446827394
  O        10.6499722965       14.3650651707        5.4858017101
  O        12.6131707485       14.6574353473        6.5839113258
  O        49.1479169387       16.8459063581        7.9897800458
  O        50.3501801285       20.9361253149        5.6482102271
  O        48.3485215743       20.5933298936        6.6659564446
  O        11.0516042239       17.0539909122        6.5006663823
  O        50.3210369125       20.8816779023       10.4068529353
  O        48.3467786204       20.5867898274        9.3271556824
  O        49.5435669432       18.2484302088       10.0683495861
  O        12.3589556111       18.6246803422        7.9997440717
  O        48.6932688275       14.1485117170        6.7513173455
  O         8.2098105737       14.2104892959        9.3226456675
  O        10.7353496649       14.5067611723       10.6643615283
  O        12.5718136857       14.5827584818        9.3285331663
  O        22.8443128059        2.0420361387        5.4874987972
  O        21.6054022033        3.5921488270        6.5896403989
  O        42.0578376489       34.1368750823        7.9789101065
  O        37.9814176634       33.1370651556        5.5723928516
  O        39.2169279825       31.5750736435        6.6654619750
  O        20.3081714263        1.0390928517        6.5018931069
  O        38.0247147829       33.1855935676       10.4153776160
  O        39.2187029422       31.5834167775        9.3270457748
  O        40.6521760311       33.7690876773       10.0601620452
  O        18.2554278714        1.3756998298        7.9967684196
  O        44.6222717715       35.1004712801        6.7587220602
  O        24.2053428122        0.0000216304        9.3208571812
  O        22.7528115260        2.0576384310       10.5836690871
  O        21.6238905521        3.5957157281        9.3417295018
  O        27.4777067072       18.7499279966        5.4978198388
  O        26.7550005030       16.9333690213        6.6557304496
  O        30.6657244583       19.4080943965        8.0072917451
  O        33.5873887746       16.2741430263        5.6697180866
  O        34.2720299184       18.1672983239        6.7376994697
  O        29.5696586915       17.0504428115        6.5908003681
  O        33.5435936378       16.3423176386       10.5643191360
  O        34.2672003672       18.1696546002        9.4101928478
  O        31.6487588955       18.3215425667       10.0959186041
  O        30.2935257439       15.1102513569        8.0851499650
  O        28.5540719191       21.0346214783        6.8295539260
  O        28.5135653236       20.9596097603        9.4020142047
  O        27.4568371754       18.6797266836       10.6561363453
  O        26.6948431227       16.9275845496        9.4114013783
  O        13.1486639577       18.6929476492       10.5873067089
  O        13.9189516726       16.9160760459        9.4046427423
  O        50.5961906363       19.3502894997        8.0206459169
  O        47.6819813347       16.3274607464       10.4176293949
  O        46.9515813216       18.1760909384        9.3245433775
  O        11.0694987738       17.0156638407        9.4896811076
  O        47.6767984978       16.3353554564        5.6534162557
  O        46.9276017742       18.2356944974        6.6647357670
  O        49.5687558076       18.3177858982        5.9823247971
  O        10.3187224395       15.1001719749        7.9971227271
  O        52.6707675858       21.0279134668        9.2418290928
  O        12.1468369187       20.8912548257        6.6732531828
  O        13.1076319763       18.6136773608        5.3257504026
  O        13.9563925977       16.9866734165        6.6657815503
  O        29.9861990577       14.4409364959       10.7380611633
  O        28.0856225025       14.6508393819        9.4986974779
  O        32.0788756713       16.8566110713        8.0742812729
  O        30.9699274110       20.9551263117       10.4004218473
  O        32.9515155152       20.5937728192        9.3331259913
  O        29.5634152151       17.0728403624        9.5787483792
  O        30.8846621246       20.8223092079        5.5785546781
  O        32.8714523182       20.5852444974        6.6622951458
  O        31.6753519399       18.2396135498        5.9333257992
  O        28.2868799291       18.6771807808        8.0673978098
  O        32.4908257638       14.2151611877        9.3239624348
  O        32.4073910817       14.2102085523        6.8290636783
  O        29.9128123763       14.4304704738        5.4897443752
  O        28.0338921482       14.5872148563        6.7499881742
  O        17.8891715132        1.9665015361       10.6628182101
  O        18.9561628759        3.5270400257        9.4079872771
  O        39.1686235398       34.1386092939        7.9971094579
  O        43.2801523684       33.0588394164       10.3316264451
  O        42.0343703253       31.5064621302        9.2415178163
  O        20.3173926860        1.0364042337        9.4803531289
  O        43.2760672509       33.1824755921        5.5749013720
  O        42.0052203691       31.5840749616        6.5829972362
  O        40.5788592193       33.7746561253        5.9355824418
  O        22.3670667617        1.3843281045        7.9979513945
  O        36.6727269214       35.0996938633        9.2332964055
  O        16.4454869293        0.0641344643        6.6682667944
  O        17.9364343879        2.0433056642        5.3263842023
  O        18.9189692532        3.5930683679        6.6659195531
  O        29.6149065223       18.7574564246        4.0881261976
  O        29.7873323826       19.0400503863       11.9822241123
  O        31.2192958573       16.2841663961        4.1547673591
  O        31.3569491712       16.3334659541       12.0524685981
  O        31.2549815651       16.6264114758        1.4212880119
  O        30.6245314316       14.3624530174       13.7476869287
  O        29.4007393706       18.6841954551       14.7387220656
  O        39.4567845922       35.2438198656        4.0019679105
  O        19.1412373384        0.0044788379       11.9905742759
  O        41.9697335324       35.1727324032        4.0871537580
  O        21.6913267760       -0.0694327565       11.8958120265
  O        51.3650969414       18.6143680132        4.0054211085
  O        10.7511046510       18.7471769282       11.9049679567
  O        50.0797426712       16.4127406622        4.0917205433
  O         9.5243736050       16.4831445360       11.9911808114
 Zr         9.2972342516       16.0528146095        6.1824463585
 Zr        49.8361730676       16.0069353295        9.7463930845
 Zr        22.0728323220        0.0287216354        6.1892045944
 Zr        42.4604439397       35.1525161472        9.8006019114
 Zr        29.5971769282       19.0665884295        6.2440986940
 Zr        29.5762878399       19.1935024964        9.8287033570
 Zr        11.0381690776       19.0521054766        9.8278292837
 Zr        11.0439681342       19.1550214936        6.2510756213
 Zr        31.3324398782       16.0956689381        9.8458726020
 Zr        31.3731301636       15.9981398840        6.2640599097
 Zr        18.6005699728       -0.0023604849        9.7635434434
 Zr        18.5060292179       -0.0087002703        6.2133758021
 Zr        12.3019815254       16.3236504885        7.9904518300
 Zr        48.6167475275       18.8333073302        8.0103648669
 Zr        20.3141179720        2.4721595401        7.9903220879
 Zr        40.6422909360       32.6859223769        7.9778966046
 Zr        28.3400916410       16.3392844184        8.0784015070
 Zr        32.6157697363       18.8362316488        8.0278206095
  H        29.7966082400       18.4976836833        1.6843218675
  H        30.7444308404       14.7915749030       12.8451831645
  H        31.6438120049       17.4880262303       14.7728458625
