     568
 i =      335, E =     -4744.3706728462
  C        11.8558840214       14.0510565626        5.7468010166
  C        12.4480687233       12.8814992249        5.0406390144
  C        11.7322011283       12.2199921157        4.0295260711
  C        12.3148479908       11.1666996205        3.3337775366
  C        13.6246891088       10.7296443567        3.6372116088
  C        14.3108737055       11.3667239678        4.6938187169
  C        13.7370001648       12.4341946395        5.3755666202
  C        14.2765559470        9.6582981570        2.8727261362
  C        14.2474284048        9.6528360409        1.4161564813
  C        13.7821156855       10.7504610446        0.6790055507
  C        49.1266340584       21.2332774440        5.8797511365
  C        48.5498456841       22.4011957069        5.1526559192
  C        49.2999315087       23.0685608473        4.1717319621
  C        48.7330101091       24.1076533835        3.4384664305
  C        47.4024146629       24.5091810236        3.6669450525
  C        46.6714096563       23.8602960242        4.6804120567
  C        47.2338504094       22.8154221792        5.4098204401
  C        46.7722353474       25.5869085385        2.8696683226
  C        46.7612852417       25.5573818849        1.4479045387
  C        47.2612518910       24.4423422333        0.7043521731
  C        14.8261580534        8.5509609690        0.7044435884
  C        14.9417735208        8.6260033090        3.5419569034
  C        49.1130232790       21.2033892660       10.1454712183
  C        48.5276210631       22.3648010830       10.8725539883
  C        49.2669418917       23.0257919746       11.8652159070
  C        48.6906333663       24.0604176975       12.5965931826
  C        47.3601412202       24.4570295170       12.3585128639
  C        46.6396308201       23.8118771810       11.3352154777
  C        47.2131688263       22.7758827409       10.6035202840
  C        46.7217119628       25.5320234229       13.1495570703
  C        46.7335017095       25.5283513974       14.5712663993
  C        47.2489759709       24.4291119423       15.3275897055
  C        40.6211719781       17.0888140888       15.3095445609
  C        40.6318712282       17.1025379319       12.4999632186
  C        11.8788979176       14.0824006685       10.2794630235
  C        12.4599825140       12.8981468249       10.9683322994
  C        11.7409061955       12.2238743946       11.9691069366
  C        12.3130633635       11.1492964518       12.6394673235
  C        13.6180432184       10.7054757838       12.3244520918
  C        14.3041654108       11.3501450256       11.2726109096
  C        13.7384303596       12.4352885234       10.6125741870
  C        14.2666490734        9.6303913879       13.0851938165
  C        14.2424532201        9.6387052052       14.5421919746
  C        13.7818937948       10.7438634403       15.2712492560
  C        22.5102421223        3.2448655633        5.7515820137
  C        23.2208727396        4.3506850227        5.0483443640
  C        24.2184730056        4.0716978972        4.1025546832
  C        24.8424004669        5.1117486323        3.4183183013
  C        24.4841149533        6.4529628019        3.6595692321
  C        23.5139413027        6.7235141393        4.6417781785
  C        22.8856133911        5.6853339728        5.3245691730
  C        25.0885510260        7.5603064253        2.8839562367
  C        25.0664082018        7.5521686960        1.4622090988
  C        24.3710622184        6.5499107167        0.7136071914
  C        38.3015718608       31.9283069254        5.8494971319
  C        37.5700663936       30.8387330868        5.1412865349
  C        36.6071928691       31.1432398386        4.1668634503
  C        35.9875734908       30.1236358338        3.4495867540
  C        36.3159528523       28.7741170407        3.6847783209
  C        37.2489070320       28.4769594505        4.6960803268
  C        37.8724164543       29.4953574043        5.4125361935
  C        35.7129071663       27.6834097039        2.8859784295
  C        35.7438789212       27.7009339006        1.4644108150
  C        36.4478186639       28.7056968059        0.7284414144
  C        25.6888715208        8.6235507213        0.7439297774
  C        25.6808434734        8.6371572447        3.5562149757
  C        38.3292525474       31.9629515907       10.1569766162
  C        37.6069688872       30.8906666647       10.8988828554
  C        36.6761611046       31.2008601949       11.9020950521
  C        36.0647902680       30.1833474691       12.6317499673
  C        36.3703816161       28.8306783516       12.3814820848
  C        37.2791529407       28.5303931655       11.3483776581
  C        37.8924459959       29.5443831347       10.6198650098
  C        35.7610307862       27.7322070057       13.1649260739
  C        35.7683523121       27.7260533567       14.5868855494
  C        36.4590334910       28.7179703900       15.3516589089
  C        46.1355180166       26.6209619637       15.2814672150
  C        46.0877221369       26.5803963855       12.4735529388
  C        22.4625216534        3.2554988302       10.2564147613
  C        23.1605805988        4.3642620463       10.9763780068
  C        24.1691546374        4.0787084207       11.9104242371
  C        24.8004774918        5.1091153172       12.6032834467
  C        24.4432454235        6.4547239765       12.3848697758
  C        23.4581317659        6.7336694018       11.4187240482
  C        22.8223334459        5.7035601728       10.7262427939
  C        25.0731939842        7.5532073859       13.1600156160
  C        25.0594489681        7.5478564244       14.5827503846
  C        24.3658758886        6.5490144721       15.3366953723
  C        26.6250566531       17.8643799529        5.7820991626
  C        25.3160958894       17.9120463659        5.0592722914
  C        25.0589002522       18.9050637494        4.1009055787
  C        23.8454025270       18.9269273954        3.4158023047
  C        22.8514499250       17.9588348663        3.6663181950
  C        23.1045598076       16.9890464594        4.6549510060
  C        24.3200674443       16.9619984733        5.3377013981
  C        21.5782190040       17.9448917628        2.9014314236
  C        21.5781020116       17.9229308600        1.4786743926
  C        22.7835356913       17.7973682875        0.7184264007
  C        34.4396928161       17.1951275154        5.9208547522
  C        35.7337438586       17.1437870552        5.1776273750
  C        35.9420877374       16.1665940020        4.1916752324
  C        37.1208743484       16.1527738942        3.4514533909
  C        38.1249388819       17.1142466350        3.6780529219
  C        37.9203411142       18.0713088026        4.6901158857
  C        36.7380664402       18.0909891074        5.4270480142
  C        39.3777402972       17.1196647159        2.8883269868
  C        39.3696693110       17.1221543619        1.4663614800
  C        38.1605348719       17.2385144633        0.7108707117
  C        20.3317063994       17.9415878191        0.7694299551
  C        20.3528323292       17.9477766145        3.5829133481
  C        34.4431765651       17.2363348734       10.1847102682
  C        35.7450553153       17.1357165475       10.9060721007
  C        35.9465439424       16.1591487225       11.8926993931
  C        37.1361840623       16.1282513985       12.6163612674
  C        38.1525401138       17.0731033848       12.3738596129
  C        37.9569006125       18.0223268551       11.3530946764
  C        36.7668389919       18.0581534306       10.6324856034
  C        39.4015852852       17.0891117530       13.1675360046
  C        39.3818709384       17.1073866184       14.5890732595
  C        38.1663832522       17.2302976804       15.3339336385
  C        35.1386205391       26.6456489391       15.2893766747
  C        35.1731072534       26.6613039002       12.4803027449
  C        26.5733697823       17.8285437177       10.3262165747
  C        25.2584399403       17.8752300931       11.0331492282
  C        24.9969872075       18.8780178111       11.9791195214
  C        23.7790621764       18.9048368395       12.6529152426
  C        22.7931651621       17.9287674773       12.4047569286
  C        23.0493183513       16.9508556928       11.4265445897
  C        24.2678099819       16.9220766031       10.7507794595
  C        21.5294487832       17.9115916850       13.1776992674
  C        21.5531597252       17.9043249097       14.5993448080
  C        22.7711797910       17.7884125190       15.3419722475
  C        14.0469548912       17.8294098002       10.2889634350
  C        15.3514650093       17.8876197816       11.0145741971
  C        15.6080414898       18.8927997348       11.9602192122
  C        16.8168912383       18.9153078874       12.6534229857
  C        17.8038122524       17.9353905781       12.4234806890
  C        17.5518978002       16.9542778173       11.4458016190
  C        16.3424774282       16.9271902592       10.7540877921
  C        19.0729822726       17.9200728981       13.1929246109
  C        19.0717018692       17.9197944549       14.6155617841
  C        17.8645681277       17.8236238129       15.3769173307
  C        46.8026460370       17.2161924940       10.1569393917
  C        45.5094543135       17.1461417795       10.8974717213
  C        45.3045776064       16.1625156836       11.8776166957
  C        44.1207723390       16.1349750509       12.6101796444
  C        43.1107877875       17.0908139042       12.3853571667
  C        43.3122681203       18.0531718902       11.3773159477
  C        44.4970168400       18.0846660654       10.6454904707
  C        41.8577379750       17.0953648371       13.1755566124
  C        41.8664350220       17.0999250113       14.5977370335
  C        43.0769063203       17.1986882160       15.3535201678
  C        20.3184650860       17.9312307260       15.3241691730
  C        20.2973594690       17.8993741962       12.5110007478
  C        46.7852201796       17.2324643606        5.8865515606
  C        45.4839049894       17.1286592303        5.1666905470
  C        45.2658819416       16.1292561889        4.2060617501
  C        44.0788730292       16.1020421977        3.4779643982
  C        43.0797729204       17.0715098492        3.6924440202
  C        43.2889419257       18.0418671483        4.6903574027
  C        44.4768375749       18.0751588125        5.4140063472
  C        41.8322624745       17.0905174480        2.8968204013
  C        41.8536136383       17.0960916249        1.4754800353
  C        43.0709616234       17.1939656264        0.7305229108
  C        46.1532728086       26.6373117218        0.7262274826
  C        46.1622763491       26.6559785711        3.5358588173
  C        14.0456827953       17.8324750357        5.7091555753
  C        15.3670336287       17.9090260938        5.0193349512
  C        15.6399047639       18.9266832862        4.0929881622
  C        16.8690931435       18.9665321638        3.4386092833
  C        17.8531323358       17.9878781910        3.6846805819
  C        17.5871205824       16.9992519972        4.6495280162
  C        16.3599425379       16.9588687583        5.3074618039
  C        19.1205088339       17.9650146435        2.9156292048
  C        19.0964373798       17.9417758774        1.4940589822
  C        17.8766586227       17.8333799556        0.7531493375
  C        28.7930334741       14.1170806405       10.3972794147
  C        28.1910142075       12.9388227509       11.0857776175
  C        28.9133798176       12.2056791177       12.0385731078
  C        28.3192954830       11.1239185165       12.6844983039
  C        26.9885211554       10.7527214212       12.4036486069
  C        26.2887959534       11.4669295812       11.4144658968
  C        26.8809236911       12.5471004116       10.7655264431
  C        26.3208289297        9.6692467350       13.1614738575
  C        26.2998559797        9.6970683959       14.5823841675
  C        26.7946680317       10.8128541861       15.3295112200
  C        32.1808231057       21.2408245563       10.1419370718
  C        32.7753597136       22.4087276874       10.8585367773
  C        32.0258338007       23.0878396940       11.8314266387
  C        32.5959079594       24.1271718273       12.5602076008
  C        33.9310638374       24.5152694421       12.3367820196
  C        34.6630647738       23.8550565698       11.3320296752
  C        34.0953107902       22.8100836940       10.6052025884
  C        34.5586509885       25.5906158908       13.1383203827
  C        34.5495083117       25.5614684898       14.5598954022
  C        34.0432228677       24.4442177532       15.2962466262
  C        25.6900016930        8.6178673403       15.2991577936
  C        25.6901968516        8.6158731119       12.4859778417
  C        32.1092881881       21.1947156956        5.8469627504
  C        32.6935268917       22.3542533300        5.1093799717
  C        31.9592243248       23.0170670456        4.1137029220
  C        32.5361467458       24.0564513715        3.3875918968
  C        33.8619832037       24.4624181315        3.6377865317
  C        34.5777790083       23.8142913332        4.6623893483
  C        34.0049240410       22.7711264694        5.3851937633
  C        34.5011191249       25.5477232017        2.8584804669
  C        34.5191870163       25.5399389313        1.4366036592
  C        34.0282315065       24.4344287577        0.6729546012
  C        40.6144602922       17.0918022673        0.7545907035
  C        40.6028710700       17.1204540425        3.5648119472
  C        28.7166227967       14.0950193310        5.7861041963
  C        28.1084776002       12.9444326213        5.0544719939
  C        28.8472424629       12.2355414331        4.0947852892
  C        28.2672355730       11.1733038427        3.4055972900
  C        26.9323207680       10.7934862430        3.6507558343
  C        26.2112799568       11.4880997806        4.6399084307
  C        26.7900284120       12.5503089193        5.3317620177
  C        26.2922622310        9.7005687327        2.8799950012
  C        26.2868184304        9.7129984104        1.4583229837
  C        26.7867555416       10.8215027039        0.7053240747
  C        18.1290314564        3.1774723097       10.3109499197
  C        17.3866549636        4.2707593989       10.9922162585
  C        16.4443702252        3.9967324707       11.9977643252
  C        15.8078470473        5.0378663073       12.6639973763
  C        16.0793157994        6.3873860265       12.3384329909
  C        16.9770600475        6.6465040176       11.2796852849
  C        17.6286443279        5.6069763368       10.6268955981
  C        15.4832250097        7.4972633509       13.0921326347
  C        15.4777145014        7.4852699623       14.5494025065
  C        16.2040602088        6.5388132742       15.2847650669
  C        42.9457384508       31.8595980727       10.0725440681
  C        43.6459676398       30.7721701985       10.8169965514
  C        44.5915543303       31.0934287764       11.8030242299
  C        45.1972716405       30.0878636550       12.5506686862
  C        44.8708633094       28.7347927973       12.3357968495
  C        43.9449119893       28.4205038065       11.3226787673
  C        43.3360730465       29.4256703697       10.5747071992
  C        45.4884990539       27.6554665834       13.1389166910
  C        45.4927621146       27.6810955683       14.5606045278
  C        44.8056554893       28.6890959006       15.3072755480
  C        14.8214682927        8.5425350490       15.2604456961
  C        14.9221513167        8.5888932331       12.4205004190
  C        42.9463611052       31.9615453419        5.8091321134
  C        43.6918207627       30.8854004966        5.0957757005
  C        44.6563405858       31.1912831345        4.1234048303
  C        45.2777911835       30.1717097856        3.4055941258
  C        44.9540050225       28.8213913340        3.6432012309
  C        44.0206461782       28.5237273053        4.6540986124
  C        43.3924813470       29.5404971448        5.3663705394
  C        45.5629779748       27.7240138513        2.8578792320
  C        45.5333066556       27.7174308007        1.4365812824
  C        44.8269396078       28.7076595710        0.6836685514
  C        35.1247625006       26.6339018477        0.7343755186
  C        35.1094948989       26.6059234550        3.5444232604
  C        18.1444949867        3.2458087278        5.7106680096
  C        17.4184397614        4.3404633885        5.0122941624
  C        16.4726429933        4.0523032774        4.0146935394
  C        15.8348941396        5.0837534186        3.3360951046
  C        16.1136872654        6.4359549808        3.6397184632
  C        17.0213116852        6.7111272480        4.6849948549
  C        17.6708512316        5.6797795703        5.3537293711
  C        15.5067806296        7.5334004069        2.8773291729
  C        15.4904049350        7.5034112516        1.4216755561
  C        16.2109914293        6.5478330247        0.6918141999
  H        10.7234921354       12.5567607361        3.8008559809
  H        11.7550643763       10.6569652463        2.5530049520
  H        15.3221685038       11.0465544910        4.9355426110
  H        14.2785670587       12.9537157219        6.1624926567
  H        13.4465044166       11.6413179556        1.2012334973
  H        50.3226845362       22.7485926455        3.9871277848
  H        49.3195208966       24.6229321826        2.6809175661
  H        45.6418600605       24.1609605063        4.8634435928
  H        46.6627850172       22.2901511841        6.1718571934
  H        47.6297539992       23.5759304410        1.2460094690
  H        14.9350828234        8.6243339914        4.6305456424
  H        50.2870572821       22.7030828943       12.0599941907
  H        49.2690868064       24.5760203883       13.3599493869
  H        45.6101347745       24.1089057504       11.1463066915
  H        46.6522187585       22.2535276060        9.8321749274
  H        47.6077211969       23.5520063487       14.7966473898
  H        40.6354886513       17.0663015501       11.4122167111
  H        48.6867237312       14.0952432657        7.8001369023
  H        10.7325324113       12.5569956091       12.2037869969
  H        11.7500516636       10.6286642345       13.4106612622
  H        15.3104349392       11.0228202419       11.0196294259
  H        14.2792710193       12.9588416411        9.8278666998
  H        13.4476813606       11.6312131276       14.7426256637
  H        47.9301690544       14.2179693175        9.7108786847
  H        47.7799333392       14.3736423712        6.4951692717
  H        49.0823463120       18.5523194618       10.8667878269
  H        10.4139843861       14.1344543741        7.9991615950
  H        24.4829163180        3.0335187539        3.9142727520
  H        25.6167616101        4.8950938859        2.6856160625
  H        23.2295302338        7.7559487092        4.8341357616
  H        22.1143750032        5.8846522534        6.0645606455
  H        23.8106699361        5.7911743353        1.2520665668
  H        36.3694811352       32.1866260649        3.9735619242
  H        35.2408667821       30.3635429209        2.6958213168
  H        37.5101733365       27.4377497702        4.8848854233
  H        38.6182834220       29.2735746901        6.1721519716
  H        37.0109706786       29.4562041620        1.2754479310
  H        25.7124373935        8.6205331547        4.6441527653
  H        36.4526236930       32.2453518600       12.1071270605
  H        35.3371365548       30.4289038176       13.4020966430
  H        37.5267168539       27.4898719819       11.1490002415
  H        38.6164668623       29.3180281106        9.8409670345
  H        37.0319084710       29.4775416706       14.8275201073
  H        46.1090096243       26.5877495490       11.3855140560
  H        44.6704600679       35.1162628113        7.8102869080
  H        24.4489742033        3.0406517662       12.0753029082
  H        25.5854491307        4.8804062875       13.3210185260
  H        23.1705750992        7.7679586971       11.2410596468
  H        22.0454586437        5.9161728446        9.9954501789
  H        23.8010243961        5.7900636790       14.8031505016
  H        44.9540229629       34.3892734285        9.6944838064
  H        44.8994109132       34.2055087941        6.4887291883
  H        40.6655245390       33.2090089134       10.8519203710
  H        23.1519979714        1.9578091775        8.0035663757
  H        25.8228096481       19.6546915774        3.9078703988
  H        23.6520880668       19.7037103184        2.6789993720
  H        22.3494464803       16.2324976544        4.8586546796
  H        24.5251952091       16.1992977817        6.0853334373
  H        23.7240446843       17.6772039898        1.2482762930
  H        35.1621304380       15.4292215890        4.0167739078
  H        37.2810609338       15.3880421276        2.6945373367
  H        38.6875579021       18.8216922242        4.8696573531
  H        36.5637126643       18.8445459861        6.1916879903
  H        37.2224378946       17.3674610622        1.2433098829
  H        20.3590182038       17.9878293858        4.6707873841
  H        35.1520099205       15.4433495866       12.0909471954
  H        37.2906670056       15.3680281589       13.3789249344
  H        38.7345747753       18.7583584136       11.1599919068
  H        36.5951423804       18.8100665520        9.8660650001
  H        37.2324575265       17.3524281520       14.7928028264
  H        35.1472787197       26.6877403408       11.3925855818
  H        28.5063117297       21.0816431287        7.8941388646
  H        25.7608019778       19.6290370861       12.1678314852
  H        23.5759237196       19.6872863184       13.3809234336
  H        22.2965540777       16.1904434798       11.2287696081
  H        24.4812033125       16.1556796883       10.0094397883
  H        23.7023693680       17.6615098623       14.7980149013
  H        29.0009382210       21.7254670575        9.7448062541
  H        29.1815133359       21.7330797192        6.5694719651
  H        32.0954354985       18.5726287425       10.9848553659
  H        27.4054435087       19.0754170163        8.0786666085
  H        14.8495918090       19.6522634316       12.1366197494
  H        17.0117186973       19.7013150337       13.3799116970
  H        18.3031155601       16.1895846862       11.2590068288
  H        16.1367307877       16.1561271785       10.0154181364
  H        16.9219043792       17.7090987463       14.8496978887
  H        46.0905635968       15.4332553645       12.0591810442
  H        43.9640067014       15.3649374253       13.3623768761
  H        42.5408024524       18.7992751660       11.1983428742
  H        44.6679068762       18.8425893362        9.8845099142
  H        44.0174297913       17.3103831893       14.8216587709
  H        20.2914285546       17.9276159019       11.4228157363
  H        46.0420114417       15.3874201254        4.0321499744
  H        43.9127210539       15.3255003442        2.7344801573
  H        42.5231533071       18.7952869664        4.8627031484
  H        44.6585139487       18.8429178723        6.1620926865
  H        44.0070343079       17.3007750783        1.2710249649
  H        46.1990606142       26.6824178077        4.6233072765
  H        52.7411326549       21.0627255042        8.1946147012
  H        14.8787748930       19.6801264944        3.9025100059
  H        17.0797080158       19.7586817705        2.7233010468
  H        18.3383009142       16.2373318400        4.8473046800
  H        16.1391578381       16.1825318794        6.0359940555
  H        16.9430290618       17.7263403508        1.2971609447
  H        52.3223530710       21.6733617329        6.2943950977
  H        52.0133532438       21.7022829173        9.4956135175
  H        49.0670461064       18.6087009609        5.2044621873
  H        13.2474647071       19.0170041472        7.9774129802
  H        29.9377262265       12.4972871508       12.2594499535
  H        28.8815343682       10.5537204215       13.4208446850
  H        25.2606224055       11.1908208768       11.1896458598
  H        26.3382190905       13.1188704729       10.0167996898
  H        27.1561366534       11.6828582420       14.7897778191
  H        31.0004802148       22.7740380517       12.0115688678
  H        32.0099825066       24.6531050457       13.3108447821
  H        35.6965701806       24.1453446800       11.1543416252
  H        34.6661271500       22.2739569203        9.8504593628
  H        33.6920521824       23.5746638648       14.7479955862
  H        25.7246633774        8.5958508529       11.3980947696
  H        30.9373650300       22.7002349911        3.9179707889
  H        31.9596663126       24.5726353392        2.6229462256
  H        35.6037855175       24.1166847031        4.8618164586
  H        34.5628090413       22.2492872011        6.1592299269
  H        33.6662947643       23.5564712204        1.2001745824
  H        40.5983828257       17.0902583326        4.6527312701
  H        32.5092827465       14.1525067691        8.2598293408
  H        29.8794326136       12.5248727031        3.9105612733
  H        28.8474659351       10.6191506975        2.6709451170
  H        25.1786474142       11.2069440756        4.8363483427
  H        26.2305909993       13.1022420787        6.0834556454
  H        27.1405761747       11.6983598215        1.2395725173
  H        33.2909908653       14.1875270924        6.4332686568
  H        33.4036236720       14.4073520034        9.6070641513
  H        32.1266485114       18.5481652767        5.1850594930
  H        30.2048046230       14.1873307758        8.0786183428
  H        16.2256676955        2.9601530427       12.2439805964
  H        15.0793486659        4.8188520946       13.4412648538
  H        17.2000025395        7.6784562525       11.0169098501
  H        18.3525233385        5.8053600296        9.8401610309
  H        16.8046271284        5.8014530857       14.7610981406
  H        44.8279717751       32.1404823277       11.9771674478
  H        45.9371768145       30.3415968778       13.3065780945
  H        43.6821695643       27.3784444229       11.1525685680
  H        42.5994291500       29.1903360712        9.8100654276
  H        44.2302186033       29.4368259452       14.7690097419
  H        14.9092065068        8.5786968673       11.3319157752
  H        44.8998231565       32.2339686230        3.9319159714
  H        46.0246349438       30.4129307867        2.6522948629
  H        43.7637096359       27.4839940548        4.8456943921
  H        42.6460391911       29.3177052000        6.1248780785
  H        44.2683885350       29.4704829951        1.2182968600
  H        35.0668125532       26.6164648196        4.6319305018
  H        36.6076053930       35.1340302721        8.1847364837
  H        16.2500868647        3.0117759590        3.7897730314
  H        15.0992047943        4.8557114720        2.5682922202
  H        17.2502549550        7.7469579733        4.9264556886
  H        18.3996557537        5.8872121471        6.1335792700
  H        16.8167441836        5.8176659464        1.2195389937
  H        36.2770593101       34.4841261310        6.2729450066
  H        36.3849969124       34.2075118942        9.5000090936
  H        40.5789843380       33.2017166888        5.1537852263
  H        17.4749726227        1.9434985821        7.9766040875
  H        29.0457316405       19.3654779339       12.5121764088
  H        29.4275261748       19.4559324045        3.5487808930
  H        30.5832418804       15.5583080219        3.8769302621
  H        31.1330725793       15.5526886411       12.4936296311
  H        27.8823867270       17.7934462534       14.5560826900
  H        29.1110634185       15.5973872354       14.6315923725
  H        31.0329888798       19.9410564025        1.3856847259
  H        32.3816130784       16.1821653873        1.7618060753
  H        18.9066173586        0.8548032011       12.3577400227
  H        40.5246993661       35.2285393905        3.9516652359
  H        42.3248841301       34.4188187010        3.5899731915
  H        22.0965045938        0.6998492738       12.3425333724
  H        11.5971186766       18.7127547059       12.3820976706
  H        52.2654790087       18.4312214289        3.6784510052
  H        49.2536636838       16.4811240038        3.5870069547
  H        10.1543396221       15.7991119138       12.2878361884
  H        50.8504969119       17.6922578107        3.9545374026
  H        10.0457203301       17.3952879069       12.0516840318
  H        20.2923933842        0.0038136087       12.0339063494
  H        39.1840665081       36.1275316977        3.6936992084
 Ni        30.8095380321       17.7479000265        2.7526651720
 Ni        30.9051642073       16.6200354348       -0.1670916042
 Ni        29.6747433942       18.6484283999       -0.0866011656
 Ni        30.1405559574       17.4992105376       13.3237400328
  O        10.6489838773       14.3664820819        5.4852573567
  O        12.6128993063       14.6577181985        6.5853354764
  O        49.1477121588       16.8460540788        7.9897792351
  O        50.3501397537       20.9361258535        5.6482104582
  O        48.3484798954       20.5933127696        6.6659898134
  O        11.0513238939       17.0543371380        6.5007985241
  O        50.3208974489       20.8817343786       10.4068460458
  O        48.3466723213       20.5867871410        9.3271172272
  O        49.5435709754       18.2485471715       10.0683057242
  O        12.3591195548       18.6249773710        7.9997752441
  O        48.6931372052       14.1486723887        6.7513446531
  O         8.2098018230       14.2104841532        9.3223932964
  O        10.7346908635       14.5080164335       10.6647112051
  O        12.5708807617       14.5834261410        9.3263688600
  O        22.8448702346        2.0439242109        5.4867362396
  O        21.6055377615        3.5923947306        6.5897050072
  O        42.0596013065       34.1368646747        7.9767264150
  O        37.9814230072       33.1364036052        5.5726296719
  O        39.2179501268       31.5754876152        6.6665634379
  O        20.3091717830        1.0395434886        6.5016852035
  O        38.0257732780       33.1867327735       10.4160645583
  O        39.2190025955       31.5838484236        9.3267219429
  O        40.6544291433       33.7680388072       10.0580833809
  O        18.2598795113        1.3724652103        7.9982686409
  O        44.6228209244       35.1002836037        6.7567273679
  O        24.2069432682       -0.0001457174        9.3203538979
  O        22.7532857411        2.0571177007       10.5836780138
  O        21.6252738053        3.5962237349        9.3429273461
  O        27.5008401346       18.7544429549        5.4959798170
  O        26.7659673454       16.9354000868        6.6527359818
  O        30.6627660415       19.4080363435        8.0621530408
  O        33.5853317305       16.2784895706        5.6657373434
  O        34.2744721559       18.1678693703        6.7372755460
  O        29.5730399403       17.0627276863        6.5801591623
  O        33.5585137999       16.3396261968       10.4136046264
  O        34.3009104262       18.2404560457        9.4070991467
  O        31.6500073282       18.3169954576       10.1600302891
  O        30.3172802832       15.1520340876        8.0814641334
  O        28.5566583261       21.0345607442        6.8369447765
  O        28.5145328535       20.9555154385        9.4043231733
  O        27.4603951766       18.6794736231       10.6615334001
  O        26.6939190373       16.9308506685        9.4141284718
  O        13.1487145446       18.6931675627       10.5876018076
  O        13.9197223287       16.9166011852        9.4054215123
  O        50.5958857938       19.3502588870        8.0205586918
  O        47.6830817791       16.3270060255       10.4172865212
  O        46.9505762422       18.1755872375        9.3254336972
  O        11.0692421630       17.0163184348        9.4895081134
  O        47.6757427410       16.3359265461        5.6527866705
  O        46.9262551361       18.2358439116        6.6638796620
  O        49.5684416721       18.3178015194        5.9821905240
  O        10.3183500905       15.1004634149        7.9970206066
  O        52.6707540405       21.0279663807        9.2418107060
  O        12.1468502209       20.8912997764        6.6732787386
  O        13.1079347851       18.6137924149        5.3256235063
  O        13.9574707789       16.9873155095        6.6652927215
  O        29.9630468162       14.5019399860       10.7421124381
  O        28.0802519781       14.6572145471        9.4864783405
  O        32.0807610672       16.8662109154        8.0811815860
  O        30.9666140959       20.9537830040       10.4082009010
  O        32.9474251512       20.6000310279        9.3375695872
  O        29.5633729378       17.0824901231        9.5771985920
  O        30.8932716143       20.8765929498        5.5860365195
  O        32.8743010448       20.5860279867        6.6643427569
  O        31.6861963433       18.2470974446        5.9956697300
  O        28.2916124982       18.6785394597        8.0761407269
  O        32.4888192595       14.2144085961        9.3317276042
  O        32.4010736463       14.2134897253        6.8221069883
  O        29.8714075603       14.5013943114        5.4147960067
  O        28.0400345236       14.5864865973        6.7512318136
  O        17.8905217869        1.9628411064       10.6636374947
  O        18.9563311844        3.5251409727        9.4064561199
  O        39.1694314721       34.1390184496        7.9994313696
  O        43.2804328298       33.0593164903       10.3313646671
  O        42.0345913986       31.5065390666        9.2415014015
  O        20.3218075264        1.0369140828        9.4790999926
  O        43.2760783663       33.1825785991        5.5747818033
  O        42.0051590138       31.5841263099        6.5829349470
  O        40.5787914030       33.7747423786        5.9356375188
  O        22.3686786769        1.3848658278        7.9972362208
  O        36.6741154454       35.0995574713        9.2356663019
  O        16.4460117885        0.0645487264        6.6681656858
  O        17.9373318108        2.0422732051        5.3261113647
  O        18.9187722283        3.5922989438        6.6677784018
  O        29.8643919814       18.7638879631        4.0795762544
  O        29.8208177708       18.9766177452       12.0624889891
  O        31.2260925817       16.2634873791        4.0839376133
  O        31.2990854392       16.4178056121       12.0729969529
  O        31.8626691523       16.9220357381        1.3979953284
  O        30.0322107329       15.8199226728       14.4114475711
  O        30.3342290841       19.2734069064        1.4922711334
  O        28.6357402604       18.3915593428       14.4107213540
  O        39.4554849382       35.2437727864        4.0020239989
  O        19.2011020027        0.0037798396       11.9881294576
  O        41.9700048667       35.1724733957        4.0865836509
  O        21.7011039824       -0.0689102187       11.8980366294
  O        51.3652204490       18.6142891542        4.0054242642
  O        10.7510587439       18.7472910631       11.9050361894
  O        50.0796409416       16.4127376634        4.0913018702
  O         9.5250323072       16.4830641931       11.9913874075
 Zr         9.2965700193       16.0530605950        6.1825683054
 Zr        49.8361649459       16.0068219764        9.7466809378
 Zr        22.0722820889        0.0307197423        6.1863502686
 Zr        42.4635096172       35.1518601637        9.7913751070
 Zr        29.6127376739       19.0684043394        6.2827590239
 Zr        29.5818912536       19.1845802938        9.8787086273
 Zr        11.0378844798       19.0522834193        9.8277614380
 Zr        11.0436956875       19.1549325215        6.2512711318
 Zr        31.3373183850       16.1114178555        9.8985917513
 Zr        31.3953409401       16.0106913581        6.2687390271
 Zr        18.6070439097        0.0004973813        9.7757769049
 Zr        18.5060276601       -0.0091084024        6.2170771599
 Zr        12.3020365594       16.3243825217        7.9907055263
 Zr        48.6159447220       18.8328631042        8.0104857417
 Zr        20.3143810753        2.4736382257        7.9907111380
 Zr        40.6410514613       32.6875372836        7.9778509290
 Zr        28.3468313102       16.3489497008        8.0841302129
 Zr        32.6239773635       18.8316266894        8.0564567171
