     568
 i =      535, E =     -4744.4429301719
  C        11.8587054727       14.0536344397        5.7415345260
  C        12.4562134148       12.8906350962        5.0232126110
  C        11.7044542513       12.1716630857        4.0816508847
  C        12.2807852935       11.1094207107        3.3893036932
  C        13.6213745009       10.7396559487        3.6169749929
  C        14.3546219600       11.4432922818        4.5903291200
  C        13.7817740612       12.5083120131        5.2818183383
  C        14.2608888920        9.6489547816        2.8435944839
  C        14.2562730823        9.6568819631        1.4218894565
  C        13.7430930128       10.7590091391        0.6679954808
  C        49.1266543130       21.2332395783        5.8797716628
  C        48.5498452637       22.4011603255        5.1526643109
  C        49.2999377762       23.0685438562        4.1717610120
  C        48.7330229717       24.1076670821        3.4385302539
  C        47.4024449819       24.5092289326        3.6670494162
  C        46.6714037833       23.8602710772        4.6804400717
  C        47.2338465926       22.8153769645        5.4098270274
  C        46.7722539822       25.5869399160        2.8697467211
  C        46.7613122641       25.5573636022        1.4479809631
  C        47.2612767337       24.4422779557        0.7044979267
  C        14.8602191076        8.5705430432        0.7086257931
  C        14.8916461099        8.5969895612        3.5202346372
  C        49.1131583766       21.2034158486       10.1453222999
  C        48.5277549331       22.3647594126       10.8725087336
  C        49.2670593793       23.0256043382       11.8652772154
  C        48.6907223822       24.0601450021       12.5967518678
  C        47.3602486051       24.4567763451       12.3586322805
  C        46.6397256338       23.8117024078       11.3352987860
  C        47.2132913101       22.7758030671       10.6035065282
  C        46.7218264673       25.5317729380       13.1496478704
  C        46.7335938733       25.5281879337       14.5713512674
  C        47.2490238479       24.4289747152       15.3277365910
  C        40.6203614328       17.0854719008       15.3098558706
  C        40.6302726592       17.1029386300       12.5001013253
  C        11.8828859526       14.0865798349       10.2854391481
  C        12.4722210905       12.9107306531       10.9896994388
  C        11.7146785639       12.1775182224       11.9157627798
  C        12.2812498036       11.0950631890       12.5842080999
  C        13.6200766689       10.7213612591       12.3524235401
  C        14.3580966204       11.4369649128       11.3916910620
  C        13.7926804858       12.5181355759       10.7189818892
  C        14.2536629659        9.6245855514       13.1228253310
  C        14.2524470337        9.6445532299       14.5446681517
  C        13.7425662781       10.7535002069       15.2917391718
  C        22.5109184453        3.2442655600        5.7520606608
  C        23.2237522588        4.3488758260        5.0493720324
  C        24.2210610429        4.0671532634        4.1040586257
  C        24.8476639716        5.1053279189        3.4195779599
  C        24.4923568243        6.4474115713        3.6601204257
  C        23.5224789921        6.7207367868        4.6418926740
  C        22.8915025440        5.6843518146        5.3250019786
  C        25.0997709690        7.5528759118        2.8843560043
  C        25.0790507251        7.5439818124        1.4625878991
  C        24.3814966633        6.5433028719        0.7139624829
  C        38.3021093774       31.9293133411        5.8492875764
  C        37.5713740226       30.8400348748        5.1404769907
  C        36.6085195701       31.1442325252        4.1659695954
  C        35.9900677349       30.1243781198        3.4481168273
  C        36.3200655296       28.7751621317        3.6826593163
  C        37.2530749179       28.4783149278        4.6939836923
  C        37.8752695988       29.4968700475        5.4110828279
  C        35.7182884940       27.6839251836        2.8840853205
  C        35.7478254658       27.7018621458        1.4626244378
  C        36.4492127434       28.7079605697        0.7260964511
  C        25.7039879903        8.6139496347        0.7443339259
  C        25.6924822209        8.6294324001        3.5565721389
  C        38.3288130848       31.9629339593       10.1557128578
  C        37.6063799691       30.8908349535       10.8971659988
  C        36.6753038776       31.2011063931       11.9000908713
  C        36.0639115250       30.1835794620       12.6295735614
  C        36.3699452854       28.8309975380       12.3794519426
  C        37.2787558300       28.5306595976       11.3464142371
  C        37.8920179255       29.5446316666       10.6179923461
  C        35.7616315947       27.7325479876       13.1633870115
  C        35.7697498633       27.7269894825       14.5852890705
  C        36.4593649483       28.7202156531       15.3493223438
  C        46.1355891883       26.6208348525       15.2814702929
  C        46.0878322593       26.5800910541       12.4735753104
  C        22.4631156090        3.2555780622       10.2562335282
  C        23.1628972157        4.3634786455       10.9756050684
  C        24.1705419886        4.0755575535       11.9099512425
  C        24.8038789037        5.1043865449       12.6031435106
  C        24.4495417390        6.4507756826       12.3849585966
  C        23.4653228328        6.7321003192       11.4185600612
  C        22.8276753213        5.7035051268       10.7255039091
  C        25.0820956203        7.5474385128       13.1602930733
  C        25.0708049871        7.5405316764       14.5830528056
  C        24.3756418762        6.5428309626       15.3370570426
  C        26.6213081284       17.8652875847        5.7824578181
  C        25.3127330095       17.9106011206        5.0593489844
  C        25.0549281366       18.9053851452        4.1030477824
  C        23.8416737706       18.9274389358        3.4177720477
  C        22.8490798335       17.9575358680        3.6661093345
  C        23.1029042088       16.9855476314        4.6522758160
  C        24.3182055436       16.9584715483        5.3353688623
  C        21.5761548256       17.9441646523        2.9011263829
  C        21.5763578791       17.9230124848        1.4784719886
  C        22.7821395967       17.7986064742        0.7185842941
  C        34.4374104773       17.1947568348        5.9191245203
  C        35.7302856196       17.1447735074        5.1740657133
  C        35.9400942091       16.1659560563        4.1901220977
  C        37.1199419135       16.1507485631        3.4516888835
  C        38.1236812645       17.1126432907        3.6777495252
  C        37.9173998485       18.0719246521        4.6873633343
  C        36.7341879449       18.0927328430        5.4227698937
  C        39.3769897432       17.1171481633        2.8886925322
  C        39.3689592470       17.1182131621        1.4667317491
  C        38.1595731842       17.2327150596        0.7114240576
  C        20.3300542262       17.9416709810        0.7692012755
  C        20.3509124200       17.9466871031        3.5825668028
  C        34.4389542865       17.2365715833       10.1879171878
  C        35.7396216752       17.1382041911       10.9122103097
  C        35.9463764170       16.1556629956       11.8918300420
  C        37.1371668823       16.1237927347       12.6136391175
  C        38.1500916485       17.0735689277       12.3761312621
  C        37.9493067676       18.0294992502       11.3627972340
  C        36.7580487407       18.0661482859       10.6441356371
  C        39.4003212547       17.0880040087       13.1682303002
  C        39.3809484496       17.1038029481       14.5896873630
  C        38.1653020002       17.2243204024       15.3345575096
  C        35.1423471137       26.6457033479       15.2884196045
  C        35.1746128660       26.6608069757       12.4793055249
  C        26.5714737819       17.8290231838       10.3253397512
  C        25.2567206703       17.8734094578       11.0328766224
  C        24.9923577773       18.8802028223       11.9737849342
  C        23.7749999375       18.9065334172       12.6485756580
  C        22.7920473519       17.9263123199       12.4053629832
  C        23.0507354687       16.9443511782       11.4319986566
  C        24.2691142913       16.9157199537       10.7559131586
  C        21.5281786732       17.9100201009       13.1780143288
  C        21.5518100854       17.9042923187       14.5995434678
  C        22.7699428795       17.7896961370       15.3421382228
  C        14.0467298386       17.8291416124       10.2888870488
  C        15.3511039024       17.8872183066       11.0143113106
  C        15.6074996185       18.8921322450       11.9602474277
  C        16.8162553207       18.9143640471       12.6534942564
  C        17.8030800359       17.9344585924       12.4232348487
  C        17.5514194729       16.9537095121       11.4451503361
  C        16.3421591442       16.9269863681       10.7532960432
  C        19.0719681875       17.9189443298       13.1927696692
  C        19.0703660190       17.9193310684       14.6153371563
  C        17.8631079095       17.8229222951       15.3764811647
  C        46.8023405523       17.2162189109       10.1569829762
  C        45.5088666404       17.1460645458       10.8973748114
  C        45.3034159106       16.1618368561       11.8768275823
  C        44.1194324131       16.1341029794       12.6091931690
  C        43.1096482823       17.0903917491       12.3850986828
  C        43.3116783088       18.0533329311       11.3776847934
  C        44.4965897702       18.0849784047       10.6460054811
  C        41.8564815850       17.0945024130       13.1753955343
  C        41.8654304046       17.0974921604       14.5976755215
  C        43.0759487881       17.1960284755       15.3534918188
  C        20.3169914487       17.9312036022       15.3240758884
  C        20.2963965932       17.8973663526       12.5109870256
  C        46.7851150218       17.2323318809        5.8866143110
  C        45.4837090274       17.1281932369        5.1667679195
  C        45.2658219537       16.1285700894        4.2063175221
  C        44.0787224023       16.1008411536        3.4783437383
  C        43.0792523240       17.0699743602        3.6927199923
  C        43.2883491867       18.0406197603        4.6903982715
  C        44.4763229317       18.0743972068        5.4139621842
  C        41.8316145222       17.0883915871        2.8971562286
  C        41.8529132192       17.0931081356        1.4757608795
  C        43.0701268625       17.1909559503        0.7305217202
  C        46.1533520171       26.6372704842        0.7262251769
  C        46.1622621455       26.6560376051        3.5358630730
  C        14.0454475522       17.8324401634        5.7092514901
  C        15.3664804966       17.9088636332        5.0194536245
  C        15.6388198248       18.9262747637        4.0927291617
  C        16.8677039356       18.9658959529        3.4379493499
  C        17.8516726772       17.9872723033        3.6841479052
  C        17.5862654878       16.9989574145        4.6494369368
  C        16.3594127132       16.9588299134        5.3077949993
  C        19.1187733785       17.9644002583        2.9151152363
  C        19.0947327338       17.9415239201        1.4936420990
  C        17.8750335574       17.8327806383        0.7526854350
  C        28.7923623758       14.1165825383       10.3983626257
  C        28.1917874675       12.9380478987       11.0878572927
  C        28.9205325369       12.1989420378       12.0312138333
  C        28.3298139585       11.1151070119       12.6768890630
  C        26.9962800321       10.7476647637       12.4045855853
  C        26.2896184319       11.4683594253       11.4251637154
  C        26.8782399152       12.5508898673       10.7769548014
  C        26.3320880715        9.6617892328       13.1620284921
  C        26.3152349729        9.6872787491       14.5828825700
  C        26.8137582186       10.8013022468       15.3300382988
  C        32.1799685979       21.2412713231       10.1446727340
  C        32.7766740511       22.4062040483       10.8633070519
  C        32.0276052962       23.0875619318       11.8349064378
  C        32.5984989899       24.1272925917       12.5623062586
  C        33.9339743848       24.5137517584       12.3382457345
  C        34.6656243990       23.8514587462       11.3347256510
  C        34.0970978868       22.8058823537       10.6095515382
  C        34.5618771101       25.5898263573       13.1382165925
  C        34.5540980480       25.5606907873       14.5596665882
  C        34.0503313455       24.4425196567       15.2961767442
  C        25.7045670272        8.6085436364       15.2995816512
  C        25.6987236069        8.6103680898       12.4863165345
  C        32.1154277103       21.1984880312        5.8498579402
  C        32.7053804173       22.3532682721        5.1098874782
  C        31.9728715973       23.0113846703        4.1099167330
  C        32.5493436981       24.0507114549        3.3838785279
  C        33.8734015930       24.4600678802        3.6373429179
  C        34.5882134325       23.8152098657        4.6647114295
  C        34.0153238832       22.7724402265        5.3883222860
  C        34.5109198679       25.5458771260        2.8578414405
  C        34.5277433614       25.5382681331        1.4359661610
  C        34.0376667734       24.4320612556        0.6728345643
  C        40.6137420591       17.0882161896        0.7549195547
  C        40.6021415785       17.1187493143        3.5651509416
  C        28.7161031128       14.0942573776        5.7829631534
  C        28.1113211827       12.9421805543        5.0521011271
  C        28.8541725289       12.2325511730        4.0961390558
  C        28.2781712761       11.1672196762        3.4085067346
  C        26.9432294845       10.7859581866        3.6509881835
  C        26.2180403478       11.4815997584        4.6364039792
  C        26.7928751660       12.5464517828        5.3272062938
  C        26.3059697471        9.6915583001        2.8803470946
  C        26.3030758774        9.7028142300        1.4586964246
  C        26.8059916733       10.8100060346        0.7057998802
  C        18.1353880817        3.1810248984       10.3171608218
  C        17.4059546275        4.2782389090       11.0156354895
  C        16.3905346003        3.9998163905       11.9434703526
  C        15.7427589631        5.0397620602       12.6069625746
  C        16.0943201334        6.3835332701       12.3669996956
  C        17.0832946233        6.6531040432       11.4028185150
  C        17.7324332445        5.6157969908       10.7377644826
  C        15.4700525210        7.4912163511       13.1300892545
  C        15.4853961407        7.4905269334       14.5518047507
  C        16.1870165285        6.4969634162       15.3049849234
  C        42.9458732717       31.8594553607       10.0729080010
  C        43.6462247658       30.7718350752       10.8168369033
  C        44.5917826677       31.0931453693       11.8028947213
  C        45.1975000859       30.0875843000       12.5505116681
  C        44.8710623158       28.7345160464       12.3356552502
  C        43.9452194693       28.4201940713       11.3224509789
  C        43.3363882486       29.4253439660       10.5744407596
  C        45.4886526169       27.6552320083       13.1388444733
  C        45.4928779795       27.6809415052       14.5605317764
  C        44.8057512187       28.6889698116       15.3071403788
  C        14.8564507732        8.5630205150       15.2641897788
  C        14.8747690281        8.5630066217       12.4515228624
  C        42.9465021621       31.9615281686        5.8089670225
  C        43.6916810550       30.8854582183        5.0954751417
  C        44.6562035220       31.1913655894        4.1230890846
  C        45.2776969103       30.1717716282        3.4053689191
  C        44.9539698188       28.8214386150        3.6430472241
  C        44.0205492901       28.5237815742        4.6538921558
  C        43.3923118633       29.5405479902        5.3660806184
  C        45.5630107150       27.7240559212        2.8577991002
  C        45.5333556072       27.7174162268        1.4365033727
  C        44.8270140138       28.7076179751        0.6835326479
  C        35.1301424138       26.6336378678        0.7332996962
  C        35.1176260940       26.6053179475        3.5431126742
  C        18.1485542245        3.2469821234        5.7066200510
  C        17.4299193186        4.3438089964        4.9973846982
  C        16.4149263349        4.0525010222        4.0735840959
  C        15.7666001746        5.0831152854        3.3981876066
  C        16.1210113378        6.4283890734        3.6211176686
  C        17.1121253480        6.7117948253        4.5786519077
  C        17.7598104786        5.6829041833        5.2584344559
  C        15.4905246488        7.5240716113        2.8486538245
  C        15.4964447262        7.5074451034        1.4275177907
  C        16.1932629965        6.5057958786        0.6807992324
  H        10.6723080006       12.4657881583        3.9047105144
  H        11.6944493173       10.5508922059        2.6628359248
  H        15.3916927561       11.1687741318        4.7719519205
  H        14.3512894150       13.0716528722        6.0171265647
  H        13.3760554632       11.6311133143        1.2013271065
  H        50.3226751131       22.7485497464        3.9871139534
  H        49.3195465019       24.6229769980        2.6810138200
  H        45.6418548780       24.1609285256        4.8634861825
  H        46.6627662363       22.2900611852        6.1718225607
  H        47.6297475630       23.5758782070        1.2461930497
  H        14.8719262254        8.5882363355        4.6085409649
  H        50.2871485005       22.7028299195       12.0600853134
  H        49.2691523372       24.5756944744       13.3601632207
  H        45.6102329599       24.1087532860       11.1464096224
  H        46.6523613490       22.2534642283        9.8321394129
  H        47.6077644384       23.5518356267       14.7968444788
  H        40.6334864051       17.0689259629       11.4122700850
  H        48.6870881640       14.0950621389        7.8000178716
  H        10.6811960743       12.4665923210       12.0931078661
  H        11.6894257245       10.5246357436       13.2968528382
  H        15.3935622962       11.1591465800       11.2058489211
  H        14.3650584414       13.0875964272        9.9905506060
  H        13.3757345750       11.6221070400       14.7530900199
  H        47.9300543843       14.2189279629        9.7106608214
  H        47.7800170741       14.3740421601        6.4953530231
  H        49.0826616987       18.5518274605       10.8670800240
  H        10.4159672781       14.1343877097        7.9987639579
  H        24.4830605277        3.0282543792        3.9164027074
  H        25.6218231224        4.8865349874        2.6873032355
  H        23.2404716416        7.7539400899        4.8336612203
  H        22.1208172535        5.8859061899        6.0649871273
  H        23.8192264870        5.7858989780        1.2523393924
  H        36.3697486348       32.1874650065        3.9731713407
  H        35.2430831917       30.3637547925        2.6944633123
  H        37.5153425051       27.4392438390        4.8821198538
  H        38.6211977591       29.2755702674        6.1707550237
  H        37.0114663150       29.4595076337        1.2725945233
  H        25.7221445708        8.6139055332        4.6445782727
  H        36.4518233248       32.2456039668       12.1051484458
  H        35.3361199521       30.4289603976       13.3998399119
  H        37.5264250251       27.4901315579       11.1472377699
  H        38.6161847018       29.3184062250        9.8392017530
  H        37.0306312710       29.4806710300       14.8247530371
  H        46.1091441519       26.5873910373       11.3855371719
  H        44.6681609054       35.1160831918        7.8139510278
  H        24.4477754017        3.0368145246       12.0748062975
  H        25.5882292229        4.8738427263       13.3209604058
  H        23.1800075794        7.7670371215       11.2410487791
  H        22.0519160148        5.9180680440        9.9940694692
  H        23.8083648029        5.7855616501       14.8037167227
  H        44.9532816234       34.3898037326        9.6947637971
  H        44.9013023950       34.2066301499        6.4905986474
  H        40.6657838831       33.2089133366       10.8529560849
  H        23.1506799435        1.9576265923        8.0046826014
  H        25.8183587300       19.6560093669        3.9120449909
  H        23.6474227988       19.7054894941        2.6825626501
  H        22.3486322691       16.2275339675        4.8536203716
  H        24.5241319400       16.1943377377        6.0812945151
  H        23.7227043367       17.6788771383        1.2484708907
  H        35.1607699223       15.4281951083        4.0147649048
  H        37.2809523154       15.3846437652        2.6963622398
  H        38.6840776381       18.8229896098        4.8663260500
  H        36.5589868886       18.8477014340        6.1857852654
  H        37.2212793927       17.3601840210        1.2438020975
  H        20.3570992130       17.9861606429        4.6704542712
  H        35.1560871246       15.4340682711       12.0855258471
  H        37.2953086520       15.3589020925       13.3707791410
  H        38.7241474379       18.7695268228       11.1736061119
  H        36.5832040372       18.8224970066        9.8828533007
  H        37.2311192682       17.3449441696       14.7935943318
  H        35.1481062119       26.6868369089       11.3915910896
  H        28.5018707547       21.0909409992        7.8911422079
  H        25.7533661749       19.6357972284       12.1557555869
  H        23.5694372921       19.6918705707       13.3728121184
  H        22.2999531950       16.1809370271       11.2382758963
  H        24.4844437625       16.1463723979       10.0181958400
  H        23.7012668667       17.6630594258       14.7983567540
  H        29.0042254677       21.7267474860        9.7423740531
  H        29.1820385095       21.7338149746        6.5644730871
  H        32.0711529400       18.5558280473       10.9860689254
  H        27.3982240965       19.0774437713        8.0809592578
  H        14.8489668234       19.6514534894       12.1368625589
  H        17.0111537659       19.7000633222       13.3802848106
  H        18.3027322073       16.1891622156       11.2581685002
  H        16.1366467775       16.1565175726       10.0139457784
  H        16.9205612261       17.7077194242       14.8492223438
  H        46.0891235477       15.4322104557       12.0581644189
  H        43.9624722323       15.3635317091       13.3608094546
  H        42.5405651955       18.7998860916       11.1990505822
  H        44.6676976659       18.8434244261        9.8855886983
  H        44.0164652063       17.3078740129       14.8216551350
  H        20.2907171998       17.9245228360       11.4227754898
  H        46.0421594517       15.3869629116        4.0323558966
  H        43.9128000082       15.3240224958        2.7350966585
  H        42.5223776495       18.7938576676        4.8627398206
  H        44.6577789408       18.8423784577        6.1618791763
  H        44.0062967505       17.2978238242        1.2708407925
  H        46.1990253314       26.6825214767        4.6233122471
  H        52.7411319199       21.0626147602        8.1946605528
  H        14.8775063169       19.6795247195        3.9022863140
  H        17.0782402938       19.7577498476        2.7223032012
  H        18.3376615156       16.2372482914        4.8471718984
  H        16.1389434112       16.1829617042        6.0369169120
  H        16.9413870491       17.7251790770        1.2965553229
  H        52.3222592844       21.6732625623        6.2944101191
  H        52.0131466910       21.7020280250        9.4956129851
  H        49.0673721409       18.6077986123        5.2041355276
  H        13.2474608169       19.0163822560        7.9774257838
  H        29.9478904910       12.4868821026       12.2431433446
  H        28.8966988914       10.5400316410       13.4058852045
  H        25.2590626773       11.1952271070       11.2077296661
  H        26.3304847286       13.1275940034       10.0357071307
  H        27.1764950697       11.6708140589       14.7904599639
  H        31.0014953504       22.7763120208       12.0146965261
  H        32.0131896871       24.6546774754       13.3123937972
  H        35.6992825424       24.1408942249       11.1565773046
  H        34.6673547436       22.2687271159        9.8551661945
  H        33.6993885961       23.5725700555       14.7484467620
  H        25.7300846796        8.5923301825       11.3983115226
  H        30.9533437147       22.6896345946        3.9103786978
  H        31.9740187826       24.5635584470        2.6161776603
  H        35.6131412988       24.1199842205        4.8660346481
  H        34.5719901736       22.2536521268        6.1652862647
  H        33.6775800228       23.5533054733        1.1999355974
  H        40.5976997679       17.0896926605        4.6531062617
  H        32.5123182913       14.1410967367        8.2580585013
  H        29.8858783936       12.5243674517        3.9134371162
  H        28.8612906188       10.6121837713        2.6768296635
  H        25.1852766057       11.1991934699        4.8302893504
  H        26.2303309951       13.0992854862        6.0758958342
  H        27.1611997061       11.6864880823        1.2397313399
  H        33.2934441301       14.1935954567        6.4354275916
  H        33.4030459189       14.4147346508        9.6055417673
  H        32.1099333005       18.5336415257        5.1757128403
  H        30.1918799932       14.1481350130        8.0772706890
  H        16.1187253691        2.9632847149       12.1300852991
  H        14.9535211369        4.8203188302       13.3228368702
  H        17.3653518497        7.6860208767       11.2093805391
  H        18.5141096944        5.8185035356       10.0095485102
  H        16.7536025873        5.7396401765       14.7714969366
  H        44.8280732677       32.1402214790       11.9770869949
  H        45.9373713380       30.3412979183       13.3064601141
  H        43.6824841608       27.3781331588       11.1523450211
  H        42.5997667908       29.1899730930        9.8097918640
  H        44.2303210364       29.4366756394       14.7688341404
  H        14.8509428932        8.5462497274       11.3633038641
  H        44.8997032587       32.2340456019        3.9315886651
  H        46.0245362792       30.4129750006        2.6520605544
  H        43.7636067245       27.4840531668        4.8454911574
  H        42.6458732951       29.3177102158        6.1245741396
  H        44.2684066413       29.4704478555        1.2180912138
  H        35.0755722138       26.6159189743        4.6306333203
  H        36.6050432757       35.1341013819        8.1806290246
  H        16.1440014393        3.0129057812        3.9037145146
  H        14.9744206652        4.8562329040        2.6879519940
  H        17.3953725969        7.7472940732        4.7557695611
  H        18.5424359256        5.8933944513        5.9834514093
  H        16.7647365164        5.7555758776        1.2192204415
  H        36.2785094897       34.4824264658        6.2732352037
  H        36.3808274997       34.2092300889        9.4996404304
  H        40.5799511199       33.2023182956        5.1535569164
  H        17.4708133285        1.9474086492        7.9740891837
  H        29.1571028189       19.4754631299       12.5050853283
  H        29.3931706867       19.4513249887        3.5587944321
  H        30.4894897857       15.6579438524        3.9498452167
  H        31.2236359457       15.6522197359       12.4999687155
  H        28.0382632129       17.9232889067       14.4467691980
  H        29.2760418230       15.5197285402       14.3922655224
  H        31.2576768575       19.5963540094        1.5483600204
  H        32.0995509322       15.9940093888        1.9500231084
  H        18.8536621670        0.8691782029       12.3353256985
  H        40.5278534272       35.2292393211        3.9521021424
  H        42.3238827700       34.4188301264        3.5907016970
  H        22.0878449983        0.6918453679       12.3516313892
  H        11.5971050761       18.7126611378       12.3822442914
  H        52.2650413736       18.4309595076        3.6776845950
  H        49.2546630014       16.4771401463        3.5848697137
  H        10.1500807866       15.7982938212       12.2928968065
  H        50.8500071642       17.6925573259        3.9542075412
  H        10.0459734359       17.3946177608       12.0519595868
  H        20.2148305269        0.0022513852       12.0420064633
  H        39.1834733483       36.1244426945        3.6864430299
 Ni        30.8110629533       17.7471496373        2.9925534699
 Ni        30.8633234970       16.5915837259       -0.1615753531
 Ni        29.7610466642       18.5972968580       -0.0013660414
 Ni        29.9777276208       17.4427508507       13.0769968435
  O        10.6499294348       14.3651513129        5.4858042287
  O        12.6131709843       14.6575203019        6.5838978052
  O        49.1477626996       16.8459286943        7.9897933053
  O        50.3501188253       20.9360370527        5.6481693320
  O        48.3484794905       20.5932847352        6.6660011486
  O        11.0515261381       17.0539074883        6.5007148441
  O        50.3209626754       20.8816744971       10.4068445357
  O        48.3467160150       20.5867048576        9.3271238222
  O        49.5435736667       18.2484381772       10.0682576138
  O        12.3589979609       18.6246125610        7.9997124249
  O        48.6931927450       14.1486119924        6.7512831998
  O         8.2098623015       14.2104245041        9.3225475221
  O        10.7353120836       14.5067304707       10.6643523786
  O        12.5718219238       14.5828330632        9.3285119249
  O        22.8447590389        2.0433226301        5.4871717834
  O        21.6055812388        3.5924683370        6.5895405522
  O        42.0581992662       34.1373452647        7.9789032970
  O        37.9815760790       33.1376898061        5.5725971468
  O        39.2180665371       31.5760889515        6.6665413180
  O        20.3083827132        1.0396167527        6.5021074577
  O        38.0250411522       33.1867112124       10.4147710361
  O        39.2193102722       31.5840200393        9.3262853146
  O        40.6523021537       33.7693809166       10.0601784746
  O        18.2554465925        1.3761692727        7.9968030205
  O        44.6222239535       35.1005347936        6.7587320404
  O        24.2054428447       -0.0000052927        9.3208264411
  O        22.7531398978        2.0574445845       10.5837660826
  O        21.6248481575        3.5964328487        9.3433453250
  O        27.4954195612       18.7548666340        5.4987074765
  O        26.7637123008       16.9341506798        6.6526091099
  O        30.6674245926       19.4111286613        8.0600589578
  O        33.5826510099       16.2773400265        5.6665227640
  O        34.2744985638       18.1659465917        6.7382194645
  O        29.5704513514       17.0600184295        6.5885917664
  O        33.5543164041       16.3380225220       10.4137605202
  O        34.3001861678       18.2383929752        9.4065863340
  O        31.6503025606       18.3177014667       10.1432337672
  O        30.2943842674       15.1132318471        8.0814587977
  O        28.5563101528       21.0373202969        6.8362890497
  O        28.5130968783       20.9592570884        9.4028713349
  O        27.4575238369       18.6797301365       10.6589264157
  O        26.6927555272       16.9298265794        9.4136407065
  O        13.1486271532       18.6930490076       10.5874132421
  O        13.9195398253       16.9163170740        9.4052733855
  O        50.5958872915       19.3501761126        8.0205683044
  O        47.6828311264       16.3270400249       10.4172338802
  O        46.9504508706       18.1756036781        9.3254908144
  O        11.0696185244       17.0155907486        9.4896332735
  O        47.6756738250       16.3358616096        5.6528629963
  O        46.9261384730       18.2358343642        6.6638298036
  O        49.5685248672       18.3177267792        5.9823389081
  O        10.3187404523       15.1002445251        7.9970623434
  O        52.6707270605       21.0278830691        9.2418213582
  O        12.1467911458       20.8912055502        6.6732617147
  O        13.1077617523       18.6137729007        5.3257373545
  O        13.9572190797       16.9871004150        6.6653349479
  O        29.9625758437       14.5010488679       10.7414670548
  O        28.0775015340       14.6563756333        9.4886407328
  O        32.0801424899       16.8651504261        8.0812195790
  O        30.9654559698       20.9547604212       10.4071117939
  O        32.9469362366       20.6023439119        9.3377316989
  O        29.5593767390       17.0786855234        9.5688437738
  O        30.9008234023       20.8860585456        5.5934687463
  O        32.8791879302       20.5853601270        6.6677622687
  O        31.6861915895       18.2485731961        6.0032843327
  O        28.2836081842       18.6789500672        8.0746346729
  O        32.4897469259       14.2128114284        9.3306616983
  O        32.4032227465       14.2101082812        6.8243400252
  O        29.8716701325       14.5025831866        5.4139110880
  O        28.0384605976       14.5846176810        6.7480098066
  O        17.8892441142        1.9666812515       10.6627822107
  O        18.9562782838        3.5271364721        9.4079645567
  O        39.1687021745       34.1388774061        7.9971290862
  O        43.2802421071       33.0589465710       10.3316871667
  O        42.0345419159       31.5064495156        9.2415893677
  O        20.3177220830        1.0367764772        9.4801320860
  O        43.2760649534       33.1825991609        5.5749039663
  O        42.0052637866       31.5841144751        6.5829525268
  O        40.5789691251       33.7749507198        5.9357176956
  O        22.3673519512        1.3847101411        7.9979867563
  O        36.6727197122       35.0998378227        9.2332403146
  O        16.4455461201        0.0642548621        6.6682646118
  O        17.9364785916        2.0433855632        5.3263892022
  O        18.9190651728        3.5931020258        6.6659639789
  O        29.8288098799       18.8240571055        4.1634853974
  O        29.8251237155       18.9798584221       11.9932424939
  O        31.1772765005       16.3218178063        4.1637523671
  O        31.2570035066       16.4915183656       11.9992254095
  O        31.5599917969       16.7126775708        1.5778135072
  O        30.1575867142       15.9054521821       14.2416971317
  O        30.4160623171       19.1184743608        1.6650607339
  O        28.8828487090       18.3968239984       14.3393886460
  O        39.4567728434       35.2438595746        4.0019755366
  O        19.1415351128        0.0047411936       11.9905181360
  O        41.9697284579       35.1728801942        4.0872379862
  O        21.6912988307       -0.0694277483       11.8958826331
  O        51.3651229567       18.6142825998        4.0054398571
  O        10.7511740259       18.7471520256       11.9049390257
  O        50.0792969763       16.4127899772        4.0918024509
  O         9.5242972449       16.4831357533       11.9911981282
 Zr         9.2967122478       16.0528836398        6.1824036297
 Zr        49.8362694488       16.0068614625        9.7465072647
 Zr        22.0731370866        0.0297013520        6.1891068460
 Zr        42.4608106780       35.1531839654        9.8009077953
 Zr        29.6076030086       19.0747228924        6.2898261273
 Zr        29.5777752101       19.1861657586        9.8439691866
 Zr        11.0379565456       19.0519937428        9.8277711275
 Zr        11.0437578797       19.1548310338        6.2511708924
 Zr        31.3282689839       16.1050269252        9.8675086126
 Zr        31.3934383765       16.0118677447        6.3099284865
 Zr        18.6010723543       -0.0013519717        9.7633631205
 Zr        18.5063633963       -0.0078314285        6.2137055906
 Zr        12.3021707527       16.3237107328        7.9903185466
 Zr        48.6159178609       18.8328825780        8.0103999974
 Zr        20.3151129420        2.4733176334        7.9907013374
 Zr        40.6433919796       32.6868604523        7.9781588039
 Zr        28.3337796391       16.3425234343        8.0806584471
 Zr        32.6310741041       18.8459933595        8.0546756262
