     568
 i =      264, E =     -4744.4260879574
  C        11.8586753575       14.0536272358        5.7415621423
  C        12.4562167459       12.8906406108        5.0232381378
  C        11.7045097631       12.1716757599        4.0816353246
  C        12.2808813109       11.1094574654        3.3892821400
  C        13.6214661841       10.7396987471        3.6169876717
  C        14.3546391184       11.4432864232        4.5904340928
  C        13.7817502240       12.5082776259        5.2819318416
  C        14.2610247283        9.6490197440        2.8436157296
  C        14.2563858040        9.6569379499        1.4219109844
  C        13.7432260717       10.7590674370        0.6680057775
  C        49.1267378123       21.2332219073        5.8797596880
  C        48.5499498866       22.4011352393        5.1526360080
  C        49.3000694990       23.0685417572        4.1717669406
  C        48.7331354187       24.1076675860        3.4385490667
  C        47.4025465456       24.5091974112        3.6670650263
  C        46.6714738960       23.8601661859        4.6803831872
  C        47.2339181893       22.8152708970        5.4097632165
  C        46.7723476241       25.5869305851        2.8697907244
  C        46.7613970667       25.5573740138        1.4480230595
  C        47.2612888513       24.4422646164        0.7045252118
  C        14.8603557410        8.5706059166        0.7086572264
  C        14.8917098179        8.5970138488        3.5202640887
  C        49.1131393035       21.2033928142       10.1453412614
  C        48.5277337059       22.3647171501       10.8725615124
  C        49.2670384363       23.0256327527       11.8652817323
  C        48.6907191190       24.0602185479       12.5967081188
  C        47.3601977354       24.4567430789       12.3586755067
  C        46.6396563422       23.8116097425       11.3353940684
  C        47.2132154769       22.7756618373       10.6036589574
  C        46.7217945758       25.5317620318       13.1496883572
  C        46.7335695834       25.5281828030       14.5713934239
  C        47.2490165743       24.4289662087       15.3277625759
  C        40.6209085196       17.0845333615       15.3091804043
  C        40.6314399214       17.0982686573       12.4995268269
  C        11.8828881634       14.0865734970       10.2854319559
  C        12.4722345531       12.9107049681       10.9896561674
  C        11.7147444226       12.1775141090       11.9157836019
  C        12.2813173390       11.0950554179       12.5842267901
  C        13.6201389277       10.7213480072       12.3524226602
  C        14.3581273928       11.4369187297       11.3916388244
  C        13.7926928361       12.5180917816       10.7189454644
  C        14.2537359027        9.6245863450       13.1228392738
  C        14.2525732197        9.6445944939       14.5446829925
  C        13.7426802695       10.7535405010       15.2917491592
  C        22.5103853344        3.2446352913        5.7518587188
  C        23.2214583357        4.3504318674        5.0492378263
  C        24.2179612691        4.0711776038        4.1023742524
  C        24.8420705901        5.1111292517        3.4182172137
  C        24.4849814627        6.4524764159        3.6605039045
  C        23.5163224041        6.7233048201        4.6441398906
  C        22.8878225779        5.6852101791        5.3268742239
  C        25.0894104139        7.5596182982        2.8847097020
  C        25.0664955397        7.5515398895        1.4629767470
  C        24.3700018416        6.5498602582        0.7146840388
  C        38.3003919446       31.9281254520        5.8505406756
  C        37.5654727526       30.8385879006        5.1451610831
  C        36.6013705682       31.1433864016        4.1719278410
  C        35.9784919888       30.1239124188        3.4571886438
  C        36.3046762408       28.7739483907        3.6931174482
  C        37.2382288875       28.4765300636        4.7038427475
  C        37.8650814825       29.4948273119        5.4178597999
  C        35.6998268657       27.6839156382        2.8940330183
  C        35.7350107189       27.7006350175        1.4723940998
  C        36.4436034234       28.7033443229        0.7380314763
  C        25.6894015120        8.6224755904        0.7444243489
  C        25.6824853281        8.6362609844        3.5566180677
  C        38.3299710524       31.9621524190       10.1579467934
  C        37.6108678164       30.8897077713       10.9034535734
  C        36.6817664556       31.1997644254       11.9084030729
  C        36.0717880149       30.1823816796       12.6396794604
  C        36.3764849280       28.8293442670       12.3895809507
  C        37.2848250589       28.5293128481       11.3558666277
  C        37.8968397664       29.5431583629       10.6258187131
  C        35.7651710617       27.7308343355       13.1721947628
  C        35.7682321670       27.7248489610       14.5944026755
  C        36.4586913206       28.7153744352       15.3612707704
  C        46.1356321249       26.6208577660       15.2815301651
  C        46.0877628768       26.5800685220       12.4736276507
  C        22.4624603700        3.2556781942       10.2563458566
  C        23.1605517903        4.3642563181       10.9760124375
  C        24.1669997383        4.0778650350       11.9120801460
  C        24.7982234859        5.1078383032       12.6055082699
  C        24.4428463661        6.4536856016       12.3857046406
  C        23.4599144043        6.7334327867       11.4175740756
  C        22.8242998599        5.7037491301       10.7244054631
  C        25.0730069049        7.5517720311       13.1608919329
  C        25.0590065569        7.5468261218       14.5835980822
  C        24.3644893632        6.5488280529       15.3377707350
  C        26.6243286522       17.8634958680        5.7828480241
  C        25.3155255791       17.9099703936        5.0596573906
  C        25.0577313428       18.9036777100        4.1021731128
  C        23.8442622585       18.9251029385        3.4170066674
  C        22.8512822881       17.9557637004        3.6664703943
  C        23.1052327886       16.9849581495        4.6538288929
  C        24.3206728114       16.9583811317        5.3367274385
  C        21.5780544717       17.9416315999        2.9016523480
  C        21.5780583855       17.9194399742        1.4789728126
  C        22.7836859663       17.7944729298        0.7188597516
  C        34.4408163782       17.1947461111        5.9229609511
  C        35.7347602360       17.1445962584        5.1792570046
  C        35.9421911939       16.1674026795        4.1931103233
  C        37.1206843272       16.1528724345        3.4525248658
  C        38.1253181251       17.1138595162        3.6785954716
  C        37.9214979566       18.0711380507        4.6906647935
  C        36.7395300579       18.0913828463        5.4282341731
  C        39.3778419282       17.1184305885        2.8883235280
  C        39.3695972886       17.1190716859        1.4662708345
  C        38.1603506679       17.2336605731        0.7106837135
  C        20.3317103895       17.9377333350        0.7696892308
  C        20.3526783324       17.9444934691        3.5831037915
  C        34.4423184170       17.2354695727       10.1847571113
  C        35.7443967882       17.1340741428       10.9057616558
  C        35.9453889846       16.1568466143       11.8918664150
  C        37.1351156075       16.1246767382       12.6153335345
  C        38.1521230175       17.0689360532       12.3732644717
  C        37.9569270081       18.0188434529       11.3530049726
  C        36.7668774582       18.0557904528       10.6323690052
  C        39.4011470309       17.0842540418       13.1671049431
  C        39.3815364865       17.1021961071       14.5887183236
  C        38.1660668033       17.2242860771       15.3337284856
  C        35.1340996068       26.6459109381       15.2954847109
  C        35.1775760072       26.6603111973       12.4862223998
  C        26.5734570920       17.8278466017       10.3257120469
  C        25.2585430439       17.8739005537       11.0332820323
  C        24.9942587860       18.8799966336       11.9750774116
  C        23.7767444049       18.9057673137       12.6498614214
  C        22.7935111666       17.9259590240       12.4056701930
  C        23.0521021785       16.9451224186       11.4311527287
  C        24.2705715918       16.9168698872       10.7552446494
  C        21.5294973354       17.9088200124       13.1782590902
  C        21.5531897757       17.9014809393       14.5997911113
  C        22.7712655132       17.7859802818       15.3423990388
  C        14.0469921918       17.8290569714       10.2889489183
  C        15.3515559875       17.8866914952       11.0146593822
  C        15.6079346010       18.8906144224       11.9616707763
  C        16.8167779854       18.9123994300       12.6549332638
  C        17.8039650825       17.9330628323       12.4236614569
  C        17.5523535788       16.9533538880       11.4444921467
  C        16.3429655470       16.9270485526       10.7527048357
  C        19.0730959731       17.9170289174       13.1931665264
  C        19.0717415165       17.9160397855       14.6158140529
  C        17.8646332335       17.8186064166       15.3770806004
  C        46.8025383556       17.2159521960       10.1568241893
  C        45.5093065196       17.1451608630       10.8971533954
  C        45.3048753482       16.1611188020       11.8770110278
  C        44.1209875897       16.1325589181       12.6093909674
  C        43.1104225908       17.0878595166       12.3848405019
  C        43.3114131596       18.0505488461       11.3769911630
  C        44.4962472119       18.0830619591       10.6453130023
  C        41.8573431423       17.0914462361       13.1750491489
  C        41.8661337844       17.0959681571       14.5972479301
  C        43.0766473134       17.1955553751       15.3528470882
  C        20.3184633294       17.9276725015       15.3244913057
  C        20.2975792091       17.8967309037       12.5113181375
  C        46.7852059257       17.2323847084        5.8865301171
  C        45.4841340057       17.1286155624        5.1663354690
  C        45.2663622694       16.1291437641        4.2056989442
  C        44.0794341999       16.1017002886        3.4774966253
  C        43.0800811150       17.0709668327        3.6918385861
  C        43.2891004875       18.0414754220        4.6896653452
  C        44.4768753490       18.0749673689        5.4135068147
  C        41.8324737694       17.0894813720        2.8963538333
  C        41.8536094891       17.0936958323        1.4749993079
  C        43.0708474413       17.1913199535        0.7298478534
  C        46.1534398579       26.6372980788        0.7262881087
  C        46.1624025436       26.6560486030        3.5359189894
  C        14.0455846953       17.8321657951        5.7090506465
  C        15.3668897879       17.9078428726        5.0190917802
  C        15.6400027940       18.9245978089        4.0918694754
  C        16.8692085901       18.9635115947        3.4374868292
  C        17.8529795273       17.9848621683        3.6845586473
  C        17.5867911234       16.9971547639        4.6502579877
  C        16.3595911731       16.9577457597        5.3081542097
  C        19.1204092994       17.9613377646        2.9157156138
  C        19.0964312299       17.9374285170        1.4942037354
  C        17.8767340101       17.8280847194        0.7532996862
  C        28.7908630810       14.1157281424       10.3982896899
  C        28.1902874097       12.9364060511       11.0855559821
  C        28.9131158147       12.2040649008       12.0386079632
  C        28.3197562967       11.1219297916       12.6844447933
  C        26.9891880212       10.7501148443       12.4036321695
  C        26.2891657539       11.4633342034       11.4139458842
  C        26.8805535683       12.5437814597       10.7649445123
  C        26.3217637947        9.6669412544       13.1618203757
  C        26.3007596755        9.6952502535       14.5826898121
  C        26.7960271433       10.8110702993       15.3294394520
  C        32.1810249498       21.2406912007       10.1422419411
  C        32.7757414988       22.4088125934       10.8593992813
  C        32.0253583501       23.0905380544       11.8299391696
  C        32.5952796615       24.1296786755       12.5593328702
  C        33.9317191144       24.5157309415       12.3394462275
  C        34.6646334217       23.8533234255       11.3366439972
  C        34.0969107538       22.8085319457       10.6091710346
  C        34.5590727671       25.5906702791       13.1425693964
  C        34.5451882708       25.5625296914       14.5643653196
  C        34.0339426478       24.4470217014       15.2999870190
  C        25.6903613332        8.6165259390       15.2997103654
  C        25.6906092772        8.6138223891       12.4865709208
  C        32.0876683605       21.1956932965        5.8497435867
  C        32.6682994431       22.3579283810        5.1126746176
  C        31.9370894798       23.0178434826        4.1128118691
  C        32.5151650341       24.0576376259        3.3875955783
  C        33.8391499695       24.4670928832        3.6422607931
  C        34.5515869611       23.8220059834        4.6712429656
  C        33.9777470584       22.7790120709        5.3931821089
  C        34.4817644240       25.5512937168        2.8637461347
  C        34.5048046463       25.5427383764        1.4417226017
  C        34.0141665782       24.4379950041        0.6766807671
  C        40.6143255064       17.0883459583        0.7542999108
  C        40.6031691440       17.1200559018        3.5644837912
  C        28.7169949885       14.0960368021        5.7831693601
  C        28.1096448490       12.9448086873        5.0519704880
  C        28.8488190790       12.2350023389        4.0933551895
  C        28.2691877636       11.1719430764        3.4051116046
  C        26.9341784999       10.7925026978        3.6501848210
  C        26.2126583567       11.4880103088        4.6382820650
  C        26.7910910587       12.5509358619        5.3291423256
  C        26.2939995801        9.6993804910        2.8800422236
  C        26.2879274325        9.7118050996        1.4584441974
  C        26.7881205518       10.8200469900        0.7052341107
  C        18.1353428147        3.1809599680       10.3171278368
  C        17.4059157195        4.2781650196       11.0156391228
  C        16.3904695829        3.9997940499       11.9434611848
  C        15.7427548284        5.0397604978       12.6069851624
  C        16.0943854714        6.3835192538       12.3670558928
  C        17.0834008665        6.6530421698       11.4029035670
  C        17.7324826225        5.6157175088       10.7378199332
  C        15.4701252097        7.4912254493       13.1301276782
  C        15.4855018254        7.4905566528       14.5518435441
  C        16.1871190029        6.4969860782       15.3050180938
  C        42.9458502640       31.8594581189       10.0728836842
  C        43.6461830466       30.7718280556       10.8168262136
  C        44.5917611229       31.0931416478       11.8028723633
  C        45.1974427462       30.0875965316       12.5505417548
  C        44.8710584679       28.7345135496       12.3356810971
  C        43.9451664829       28.4201834785       11.3225178585
  C        43.3363755206       29.4253238386       10.5744578339
  C        45.4886219717       27.6552319289       13.1389072369
  C        45.4929306244       27.6809764135       14.5605971866
  C        44.8058688145       28.6890344286       15.3072244585
  C        14.8565791607        8.5630707426       15.2642206381
  C        14.8748448179        8.5630047664       12.4515420089
  C        42.9464917303       31.9615338807        5.8089168149
  C        43.6917351196       30.8854682227        5.0954917232
  C        44.6563093676       31.1914036109        4.1231631597
  C        45.2778090017       30.1718102275        3.4054485845
  C        44.9541171595       28.8214726071        3.6431592165
  C        44.0207081137       28.5237998274        4.6540136357
  C        43.3924525275       29.5405582555        5.3662002877
  C        45.5631487987       27.7240924356        2.8578930012
  C        45.5334781017       27.7174484998        1.4365931861
  C        44.8271878850       28.7076824104        0.6836165723
  C        35.1155988309       26.6347800136        0.7407051439
  C        35.0910782565       26.6085093390        3.5510332242
  C        18.1485382410        3.2468987349        5.7066330423
  C        17.4299335382        4.3437374687        4.9973740584
  C        16.4148645242        4.0525127820        4.0736337207
  C        15.7665931820        5.0831377114        3.3982001366
  C        16.1210686547        6.4283946800        3.6211246256
  C        17.1122813785        6.7117586488        4.5785666532
  C        17.7598941136        5.6828312165        5.2583657876
  C        15.4906178514        7.5241151695        2.8486837125
  C        15.4965404844        7.5074842473        1.4275489538
  C        16.1933579803        6.5058314027        0.6808331659
  H        10.6723715254       12.4657972407        3.9046444023
  H        11.6945725711       10.5509520834        2.6627760348
  H        15.3916904803       11.1687354001        4.7721213472
  H        14.3512209624       13.0715744852        6.0173067357
  H        13.3761747081       11.6311630400        1.2013392699
  H        50.3228136699       22.7485652401        3.9871209904
  H        49.3196655235       24.6230314598        2.6810737463
  H        45.6419112312       24.1607827719        4.8634105290
  H        46.6628195297       22.2898747738        6.1716887800
  H        47.6297476664       23.5758584423        1.2462225789
  H        14.8720013260        8.5882674575        4.6085706442
  H        50.2871728909       22.7029514372       12.0600049968
  H        49.2691560144       24.5757882589       13.3600999484
  H        45.6101168510       24.1085529459       11.1465930670
  H        46.6522528246       22.2532858838        9.8323402810
  H        47.6077025418       23.5518050020       14.7968671865
  H        40.6350187065       17.0623962892       11.4117691732
  H        48.6870613406       14.0950233956        7.8000180081
  H        10.6812520604       12.4665634890       12.0931196186
  H        11.6894853337       10.5246303416       13.2968671583
  H        15.3935704853       11.1590506230       11.2057406153
  H        14.3650361594       13.0875014659        9.9904428518
  H        13.3758233872       11.6221332594       14.7530940896
  H        47.9300649345       14.2187567699        9.7106245129
  H        47.7799787299       14.3737787189        6.4953056424
  H        49.0826544423       18.5518043012       10.8670642897
  H        10.4159218419       14.1343983767        7.9987416188
  H        24.4813072912        3.0328971717        3.9131479465
  H        25.6154502843        4.8942952162        2.6845366068
  H        23.2330567518        7.7558691377        4.8374834938
  H        22.1178926145        5.8848316166        6.0681492426
  H        23.8087241174        5.7918812288        1.2532877361
  H        36.3652490600       32.1868725491        3.9772291460
  H        35.2314043975       30.3643780333        2.7039602126
  H        37.4978995583       27.4371274274        4.8938467029
  H        38.6116543496       29.2723938007        6.1766169081
  H        37.0068394998       29.4528064438        1.2863869068
  H        25.7146911386        8.6197352274        4.6445420163
  H        36.4579812221       32.2442261280       12.1134052300
  H        35.3451565683       30.4285466993       13.4107982005
  H        37.5326162337       27.4888522756       11.1564043563
  H        38.6198497734       29.3162282838        9.8461236644
  H        37.0348484879       29.4735900637       14.8387266892
  H        46.1090528983       26.5873565319       11.3855886572
  H        44.6682126154       35.1161313616        7.8139262785
  H        24.4450456016        3.0395079005       12.0780192184
  H        25.5816705174        4.8786545377       13.3247468596
  H        23.1740192898        7.7680001938       11.2388833568
  H        22.0494740167        5.9169446054        9.9916020237
  H        23.7985474657        5.7904709241       14.8045407282
  H        44.9535379563       34.3900482742        9.6949411111
  H        44.9015292650       34.2067510392        6.4905400030
  H        40.6662043790       33.2089934951       10.8530758651
  H        23.1505274486        1.9577279139        8.0046326083
  H        25.8211193874       19.6541801202        3.9103602376
  H        23.6500614367       19.7025599663        2.6811421558
  H        22.3508810033       16.2273368080        4.8563633859
  H        24.5265693298       16.1950017315        6.0834522911
  H        23.7241413727       17.6743569865        1.2488530390
  H        35.1612985515       15.4310783852        4.0180598337
  H        37.2800296316       15.3880132898        2.6955715951
  H        38.6890652878       18.8212492126        4.8698415159
  H        36.5660315539       18.8449583848        6.1930584960
  H        37.2220823587       17.3620788499        1.2429405782
  H        20.3588448072       17.9849354676        4.6709617897
  H        35.1502619011       15.4416998103       12.0900848973
  H        37.2891164117       15.3638191546       13.3773586630
  H        38.7350992648       18.7544058655       11.1601244285
  H        36.5957812175       18.8081108738        9.8662102673
  H        37.2318926448       17.3450594978       14.7927425546
  H        35.1549964548       26.6865222417       11.3984193497
  H        28.5031464971       21.0837594696        7.8950981129
  H        25.7548475253       19.6359581104       12.1575615677
  H        23.5711910392       19.6905910640       13.3746760687
  H        22.3012685683       16.1819870906       11.2365225780
  H        24.4859565101       16.1481103182       10.0169302602
  H        23.7022871746       17.6591442512       14.7981386168
  H        29.0056148386       21.7238856324        9.7429979807
  H        29.1814462962       21.7297268732        6.5686186436
  H        32.0902876389       18.5694653725       10.9881469923
  H        27.4037395596       19.0737490368        8.0810540147
  H        14.8492902198       19.6496185797       12.1392250137
  H        17.0113446482       19.6973827341       13.3825948537
  H        18.3037332068       16.1891030526       11.2565425677
  H        16.1376614419       16.1572543119       10.0125803384
  H        16.9220898345       17.7031548934       14.8498513953
  H        46.0912960410       15.4323196526       12.0585360445
  H        43.9647072929       15.3622060057       13.3613703354
  H        42.5394801601       18.7961968449       11.1981460947
  H        44.6666467847       18.8413115427        9.8845456541
  H        44.0171069747       17.3072464608       14.8208862012
  H        20.2918150246       17.9251600013       11.4231374829
  H        46.0426505921       15.3874765547        4.0317916292
  H        43.9134933283       15.3250251684        2.7341075004
  H        42.5231718767       18.7947780983        4.8619104690
  H        44.6583187116       18.8428266040        6.1615462095
  H        44.0069456096       17.2987950750        1.2701682940
  H        46.1991698052       26.6825075853        4.6233694003
  H        52.7410842465       21.0626075223        8.1946523956
  H        14.8790127622       19.6779890060        3.9006276014
  H        17.0800228710       19.7548923811        2.7213891141
  H        18.3377834896       16.2352304422        4.8487150271
  H        16.1387207137       16.1822699143        6.0375790210
  H        16.9431867421       17.7199388910        1.2972473756
  H        52.3222327511       21.6731880301        6.2943787771
  H        52.0130658954       21.7019254059        9.4956217595
  H        49.0673166019       18.6077319743        5.2041396467
  H        13.2474048538       19.0164804046        7.9773777233
  H        29.9370690276       12.4967149527       12.2598513958
  H        28.8822060101       10.5522938615       13.4210504393
  H        25.2611997612       11.1864386604       11.1891746848
  H        26.3375888096       13.1151117330       10.0160747123
  H        27.1577901019       11.6808910206       14.7896117865
  H        30.9988489776       22.7794243174       12.0079551034
  H        32.0079733219       24.6569534475       13.3079511919
  H        35.6990442910       24.1415871203       11.1608701758
  H        34.6690767976       22.2712300956        9.8562643589
  H        33.6826522273       23.5778377510       14.7512462921
  H        25.7252399062        8.5934327056       11.3987086997
  H        30.9173561805       22.6979088372        3.9111139670
  H        31.9405442618       24.5706643755        2.6194417026
  H        35.5761432498       24.1264934928        4.8748413526
  H        34.5338183994       22.2597559366        6.1701423570
  H        33.6480147792       23.5611496204        1.2028441214
  H        40.5988731950       17.0909813731        4.6524332646
  H        32.5079366903       14.1498139928        8.2626252528
  H        29.8810970102       12.5240566246        3.9093331851
  H        28.8496381181       10.6170056145        2.6712210187
  H        25.1799452220       11.2069823919        4.8344823603
  H        26.2313531022       13.1036774948        6.0799846072
  H        27.1422619273       11.6969750676        1.2391700536
  H        33.2926814204       14.1898963523        6.4347657377
  H        33.4033834980       14.4116799993        9.6063814903
  H        32.1366055292       18.5490235020        5.1949664752
  H        30.1872086870       14.1576334265        8.0799598410
  H        16.1186081885        2.9632705053       12.1300517054
  H        14.9534996585        4.8203331432       13.3228444642
  H        17.3655284988        7.6859493726       11.2095076418
  H        18.5142032844        5.8184149649       10.0096458870
  H        16.7536869946        5.7396430136       14.7715377367
  H        44.8280667474       32.1402139833       11.9770679211
  H        45.9373363104       30.3413329555       13.3064631280
  H        43.6824463936       27.3781193136       11.1524039921
  H        42.5997672277       29.1899296786        9.8098033429
  H        44.2304800592       29.4367852699       14.7689373386
  H        14.8509989283        8.5462148908       11.3633244269
  H        44.8997630790       32.2340861005        3.9316279249
  H        46.0246768868       30.4130305517        2.6521743345
  H        43.7638286343       27.4840646892        4.8456609252
  H        42.6460052951       29.3177057069        6.1246779380
  H        44.2686424129       29.4705562224        1.2181768712
  H        35.0452785239       26.6196332434        4.6384152229
  H        36.6050862140       35.1339959807        8.1807191808
  H        16.1438963790        3.0129323984        3.9037512990
  H        14.9743396516        4.8563006826        2.6880327806
  H        17.3955831274        7.7472470455        4.7556753677
  H        18.5426148902        5.8932958789        5.9832907372
  H        16.7648040976        5.7555971413        1.2192656396
  H        36.2785409817       34.4823273997        6.2731847255
  H        36.3807499626       34.2091976728        9.4996779312
  H        40.5796930467       33.2019978820        5.1537596466
  H        17.4708422611        1.9471873430        7.9740403440
  H        29.1035143316       19.4349371817       12.5385782523
  H        29.4668117925       19.4742365411        3.5541855551
  H        30.6583959296       15.5401084711        3.8761578181
  H        31.1295515384       15.5481117535       12.4895228089
  H        27.8020067436       18.0219124138       14.5251584111
  H        29.0162859061       15.5980296214       14.5956968109
  H        31.1085529891       19.8176538706        1.3458323958
  H        32.3071555500       16.1066319287        1.7884820258
  H        18.8536977890        0.8691676953       12.3352601671
  H        40.5277451780       35.2289647358        3.9521148671
  H        42.3239587056       34.4188190613        3.5906772668
  H        22.0878995791        0.6920735801       12.3515521505
  H        11.5970955893       18.7129017228       12.3822889595
  H        52.2650501246       18.4309891173        3.6776146111
  H        49.2550730094       16.4770763772        3.5846944256
  H        10.1507801332       15.7982199215       12.2926379279
  H        50.8500316685       17.6924294394        3.9542379813
  H        10.0462946396       17.3945784987       12.0519962800
  H        20.2149875893        0.0023398812       12.0419958408
  H        39.1833636406       36.1242006652        3.6864997312
 Ni        30.8190874383       17.7402450107        2.8329445499
 Ni        30.7791436620       16.5461519771       -0.0854160393
 Ni        29.5895380586       18.5535023708        0.0802864582
 Ni        30.0951087658       17.4851951329       13.3232092450
  O        10.6499327097       14.3651386936        5.4857881108
  O        12.6132099717       14.6574942957        6.5839075493
  O        49.1477821899       16.8459710018        7.9897705412
  O        50.3502054497       20.9359032468        5.6481222599
  O        48.3485429670       20.5932806349        6.6659664620
  O        11.0515359692       17.0538862907        6.5006851224
  O        50.3209605242       20.8816508138       10.4068579993
  O        48.3467547868       20.5867153718        9.3270841057
  O        49.5437006865       18.2484283693       10.0683085184
  O        12.3590073009       18.6245835008        7.9997826617
  O        48.6932096286       14.1486095068        6.7512782944
  O         8.2098929458       14.2103596102        9.3225570600
  O        10.7353315379       14.5067118680       10.6643652234
  O        12.5718425329       14.5827950923        9.3284763846
  O        22.8447940645        2.0437557047        5.4871589411
  O        21.6052521989        3.5922619155        6.5898362476
  O        42.0580348060       34.1373865247        7.9788972848
  O        37.9812739448       33.1364847600        5.5724798891
  O        39.2179011943       31.5755799945        6.6663218705
  O        20.3083928501        1.0395342597        6.5020201346
  O        38.0248442328       33.1860421375       10.4151817929
  O        39.2189850926       31.5836585669        9.3266695383
  O        40.6522897641       33.7693127335       10.0601950599
  O        18.2555215553        1.3760074589        7.9967891373
  O        44.6221608525       35.1005431072        6.7587274023
  O        24.2054475782       -0.0000198214        9.3207802384
  O        22.7530764101        2.0576288824       10.5837667819
  O        21.6246528456        3.5961329611        9.3428562285
  O        27.4991568499       18.7540721829        5.4969878298
  O        26.7660462822       16.9342802956        6.6532946653
  O        30.6626925481       19.4083978133        8.0657662227
  O        33.5879000104       16.2777380335        5.6690977903
  O        34.2738198742       18.1689201276        6.7384630953
  O        29.5737111758       17.0591805480        6.5815152959
  O        33.5576837119       16.3390466499       10.4134525470
  O        34.3004406180       18.2399912912        9.4070760618
  O        31.6491951879       18.3158546254       10.1602746639
  O        30.2976548606       15.1219546628        8.0831525301
  O        28.5540019671       21.0346923815        6.8391437684
  O        28.5148583810       20.9551459469        9.4058559350
  O        27.4598807889       18.6792624807       10.6615595371
  O        26.6939301931       16.9303338917        9.4139214415
  O        13.1489717498       18.6929854925       10.5875238129
  O        13.9196568357       16.9162968731        9.4053228954
  O        50.5958789089       19.3500931346        8.0205339174
  O        47.6831998284       16.3269414737       10.4172070513
  O        46.9505223667       18.1755556325        9.3255129566
  O        11.0697104659       17.0155668494        9.4896865826
  O        47.6758010626       16.3358695877        5.6528957069
  O        46.9262507043       18.2358295957        6.6638627221
  O        49.5685551211       18.3176902155        5.9823090478
  O        10.3187187175       15.1002546035        7.9971210286
  O        52.6707422417       21.0278673031        9.2418207240
  O        12.1468138195       20.8911758147        6.6732680408
  O        13.1080748473       18.6137242696        5.3256478622
  O        13.9573964020       16.9870752459        6.6653202396
  O        29.9608532578       14.5010718274       10.7435068044
  O        28.0777177091       14.6567653638        9.4885851944
  O        32.0757887997       16.8612622618        8.0840169327
  O        30.9664780335       20.9534619982       10.4088470833
  O        32.9470584647       20.6001765549        9.3371636372
  O        29.5634515493       17.0803088567        9.5761436235
  O        30.8661812157       20.8801086255        5.5930567202
  O        32.8645896638       20.5876551541        6.6595936493
  O        31.6856455546       18.2466125668        5.9991487909
  O        28.2902273704       18.6776717114        8.0773695875
  O        32.4888614148       14.2141234566        9.3329650313
  O        32.4023090654       14.2115052086        6.8231207172
  O        29.8716150204       14.5032832319        5.4126935790
  O        28.0390130112       14.5859043525        6.7486258375
  O        17.8892027616        1.9666130399       10.6627878866
  O        18.9562336951        3.5271394744        9.4079630282
  O        39.1686400735       34.1387395785        7.9971315314
  O        43.2802185614       33.0589369914       10.3316874161
  O        42.0344819289       31.5065129852        9.2415579971
  O        20.3176982684        1.0366390769        9.4801615098
  O        43.2760853968       33.1826014047        5.5749531131
  O        42.0052578298       31.5841823900        6.5829585151
  O        40.5789171485       33.7748960099        5.9357192437
  O        22.3673127670        1.3846358042        7.9979633327
  O        36.6727085585       35.0998014549        9.2333128190
  O        16.4455823876        0.0641640748        6.6682138123
  O        17.9364558469        2.0433011140        5.3263965445
  O        18.9190082572        3.5931265708        6.6659651323
  O        29.8578383408       18.7693148491        4.1038669273
  O        29.8215566797       18.9715223410       12.0670055517
  O        31.2964178403       16.2469425133        4.0957438560
  O        31.2975269047       16.4154617163       12.0746524973
  O        31.8076445307       16.8584956266        1.4212736116
  O        29.9460132756       15.8222061294       14.4166696338
  O        30.3354948488       19.2737439384        1.5780394576
  O        28.6717974049       18.4565559082       14.4911755813
  O        39.4566042381       35.2435820313        4.0019962451
  O        19.1416274871        0.0047218468       11.9905094524
  O        41.9696273317       35.1728137964        4.0871700689
  O        21.6913461816       -0.0692457848       11.8958760792
  O        51.3651685768       18.6142567699        4.0054778125
  O        10.7511980992       18.7471989404       11.9049176705
  O        50.0796398527       16.4128847558        4.0917719735
  O         9.5248348174       16.4830194154       11.9911871385
 Zr         9.2965444260       16.0528332782        6.1823956098
 Zr        49.8361434351       16.0068226261        9.7465298072
 Zr        22.0732355290        0.0297360944        6.1890091163
 Zr        42.4609605290       35.1533078209        9.8008949177
 Zr        29.6075330170       19.0688492835        6.2909019691
 Zr        29.5813538461       19.1825609572        9.8778513543
 Zr        11.0378570547       19.0519955309        9.8277005205
 Zr        11.0436692769       19.1547988187        6.2512225039
 Zr        31.3325505163       16.1054934008        9.9049566790
 Zr        31.3969923567       16.0048975029        6.2811365070
 Zr        18.6011348579       -0.0014552086        9.7634284192
 Zr        18.5064788634       -0.0080224229        6.2136945286
 Zr        12.3019863556       16.3237002258        7.9902843495
 Zr        48.6157227791       18.8328575309        8.0104487657
 Zr        20.3150266438        2.4732678564        7.9906906946
 Zr        40.6433741338       32.6867748072        7.9780815946
 Zr        28.3459149971       16.3430498275        8.0827692124
 Zr        32.6230984781       18.8288568940        8.0573214003
