     568
 i =      186, E =     -4744.4386118892
  C        11.8587065686       14.0535653334        5.7415759915
  C        12.4562256494       12.8906090620        5.0232787605
  C        11.7045428820       12.1716924637        4.0816045031
  C        12.2809227317       11.1094848423        3.3892554393
  C        13.6214876439       10.7396741645        3.6170221301
  C        14.3546439625       11.4432359615        4.5905037269
  C        13.7817528973       12.5082166770        5.2820057036
  C        14.2610380264        9.6490163616        2.8436294156
  C        14.2563763557        9.6569439080        1.4219286580
  C        13.7431932929       10.7590624926        0.6680251225
  C        49.1266334203       21.2332618537        5.8797634150
  C        48.5498329899       22.4011493559        5.1526678876
  C        49.2998799572       23.0684585432        4.1716728378
  C        48.7329507361       24.1075661417        3.4384384592
  C        47.4024063411       24.5092084234        3.6670412808
  C        46.6714307101       23.8603392431        4.6805427005
  C        47.2338785016       22.8154569534        5.4099331786
  C        46.7722045683       25.5869058482        2.8697409912
  C        46.7612726341       25.5573183083        1.4479769573
  C        47.2612046858       24.4422204031        0.7044885366
  C        14.8603398087        8.5706189054        0.7086634574
  C        14.8918087211        8.5970595172        3.5202749073
  C        49.1131628738       21.2034157563       10.1453346921
  C        48.5278008996       22.3647726430       10.8724798393
  C        49.2670477684       23.0254960928       11.8653800129
  C        48.6907256596       24.0600497694       12.5968420500
  C        47.3603130320       24.4568316007       12.3586051298
  C        46.6398818370       23.8119160360       11.3351000726
  C        47.2134225229       22.7760010487       10.6033163940
  C        46.7218759715       25.5318064236       13.1496328184
  C        46.7335892665       25.5281646422       14.5713372041
  C        47.2489808020       24.4289354510       15.3277261266
  C        40.6209546844       17.0814375650       15.3085480940
  C        40.6313835559       17.0978160254       12.4986777699
  C        11.8829376333       14.0865459410       10.2854869287
  C        12.4722521345       12.9107164657       10.9897076247
  C        11.7147536537       12.1775726759       11.9158755797
  C        12.2813331717       11.0951187550       12.5843060175
  C        13.6201311150       10.7213389383       12.3524373114
  C        14.3580708921       11.4368264256       11.3915482747
  C        13.7926541797       12.5179963232       10.7188466141
  C        14.2537494455        9.6245990384       13.1228532795
  C        14.2525212483        9.6445903971       14.5446936407
  C        13.7426415263       10.7535345338       15.2917704253
  C        22.5115529234        3.2445270034        5.7522132490
  C        23.2255640393        4.3489361517        5.0503129511
  C        24.2224541137        4.0667559115        4.1046180539
  C        24.8502732789        5.1045963026        3.4207126569
  C        24.4968528207        6.4470787348        3.6620509683
  C        23.5275829159        6.7208198433        4.6443723186
  C        22.8952882010        5.6847498983        5.3268856251
  C        25.1052227888        7.5521744560        2.8862336945
  C        25.0832929230        7.5434683584        1.4644334159
  C        24.3840987820        6.5436685923        0.7161442677
  C        38.3020054393       31.9291535259        5.8492387573
  C        37.5711077742       30.8397983664        5.1403770069
  C        36.6087541835       31.1440001260        4.1653551816
  C        35.9901557028       30.1241717623        3.4475016616
  C        36.3192998525       28.7748315577        3.6826034106
  C        37.2517955139       28.4780008273        4.6944334551
  C        37.8742296891       29.4965424422        5.4114451390
  C        35.7174941832       27.6835093273        2.8839086284
  C        35.7481712339       27.7009760407        1.4624326244
  C        36.4504312596       28.7065900171        0.7260902741
  C        25.7087210533        8.6128901436        0.7457526819
  C        25.6999397523        8.6279126149        3.5580982355
  C        38.3288845843       31.9629508035       10.1556700994
  C        37.6066718551       30.8906804741       10.8971357437
  C        36.6763385956       31.2006824845       11.9008071828
  C        36.0653562218       30.1829263647       12.6303169044
  C        36.3710642511       28.8304224359       12.3794016413
  C        37.2790907161       28.5303745080       11.3456011440
  C        37.8919670886       29.5445721714       10.6171875694
  C        35.7629801236       27.7317487017       13.1631720645
  C        35.7712624081       27.7258866427       14.5850946854
  C        36.4612285241       28.7187260328       15.3493100006
  C        46.1355824818       26.6208069094       15.2814645080
  C        46.0879111159       26.5801531963       12.4735701835
  C        22.4631394641        3.2557704942       10.2566884223
  C        23.1628349467        4.3634875912       10.9764943291
  C        24.1696295066        4.0752487763       11.9117283297
  C        24.8030872251        5.1038042882       12.6052541053
  C        24.4499621267        6.4504925574       12.3866390036
  C        23.4664914539        6.7320719244       11.4194814851
  C        22.8286368861        5.7037565419       10.7261165994
  C        25.0834145763        7.5469195396       13.1617730357
  C        25.0729911095        7.5400923357       14.5846332209
  C        24.3773062965        6.5431664136       15.3392025504
  C        26.6203039388       17.8637341422        5.7798034461
  C        25.3125454989       17.9118148286        5.0561713172
  C        25.0471566032       18.9164785655        4.1121669981
  C        23.8338083272       18.9375664790        3.4268065153
  C        22.8482420837       17.9580762862        3.6646018734
  C        23.1089033377       16.9765145917        4.6393781486
  C        24.3245565700       16.9496783483        5.3215345250
  C        21.5750766161       17.9449528500        2.8999374742
  C        21.5759972438       17.9265940216        1.4774395599
  C        22.7825518599       17.8071308492        0.7180162995
  C        34.4377106692       17.1925471813        5.9203644726
  C        35.7300549931       17.1440465744        5.1731769154
  C        35.9341948271       16.1704948935        4.1826397269
  C        37.1142114967       16.1542368966        3.4441094686
  C        38.1227415318       17.1100872663        3.6756515370
  C        37.9206219136       18.0648871107        4.6904112892
  C        36.7378230573       18.0864595213        5.4266087175
  C        39.3763490184       17.1137759278        2.8871239776
  C        39.3691332169       17.1149348671        1.4651467873
  C        38.1602821143       17.2290919493        0.7089420851
  C        20.3298810058       17.9429520465        0.7679391480
  C        20.3500376342       17.9446694482        3.5815028564
  C        34.4387697002       17.2362781224       10.1884813149
  C        35.7398934264       17.1358349651       10.9117956319
  C        35.9470078989       16.1514554589       11.8894990150
  C        37.1382576048       16.1180996550       12.6105795292
  C        38.1510804569       17.0683103028       12.3742714883
  C        37.9500426574       18.0258304460       11.3625036785
  C        36.7584527609       18.0638165286       10.6444475748
  C        39.4013131346       17.0823429269       13.1664213217
  C        39.3818868201       17.0985933862       14.5877882929
  C        38.1660759352       17.2193053067       15.3322044316
  C        35.1434376534       26.6447439027       15.2880585342
  C        35.1755769704       26.6604187284       12.4787974501
  C        26.5736514301       17.8286190323       10.3254313279
  C        25.2586254599       17.8736514582       11.0332790965
  C        24.9920733156       18.8839650779       11.9697532385
  C        23.7743948608       18.9109654209       12.6441422698
  C        22.7933434668       17.9279502643       12.4047628548
  C        23.0541939048       16.9422339021       11.4358347484
  C        24.2728609043       16.9130014478       10.7602170158
  C        21.5291279887       17.9121202617       13.1771093332
  C        21.5523843916       17.9079492549       14.5986294196
  C        22.7707348163       17.7977687127       15.3415695007
  C        14.0468343335       17.8291380373       10.2886968987
  C        15.3514734757       17.8871258245       11.0137939969
  C        15.6080861676       18.8917583928       11.9599388063
  C        16.8170774212       18.9138254769       12.6527902974
  C        17.8039285644       17.9341072465       12.4218200192
  C        17.5520914921       16.9536711958       11.4434951799
  C        16.3425357496       16.9270718369       10.7521220153
  C        19.0728545180       17.9187337144       13.1913148161
  C        19.0709052389       17.9189330234       14.6138639098
  C        17.8635754819       17.8205945031       15.3747153948
  C        46.8026193277       17.2159963132       10.1567373675
  C        45.5092627522       17.1452087328       10.8970398816
  C        45.3046212930       16.1606254213       11.8762605132
  C        44.1207044983       16.1319207925       12.6085787112
  C        43.1104473648       17.0875934687       12.3844139425
  C        43.3116644261       18.0509652068       11.3773015906
  C        44.4965508419       18.0835797914       10.6456986556
  C        41.8572856564       17.0906115153       13.1744547298
  C        41.8661336910       17.0940693449       14.5967084420
  C        43.0764438979       17.1937534905       15.3527345928
  C        20.3173204784       17.9326951243       15.3228553572
  C        20.2974973056       17.8978310007       12.5098195852
  C        46.7849808561       17.2323393853        5.8864158043
  C        45.4835441957       17.1279185690        5.1662825230
  C        45.2658470043       16.1278307065        4.2062430711
  C        44.0787598171       16.0994182442        3.4781997508
  C        43.0789578987       17.0683256527        3.6920615385
  C        43.2879029976       18.0395883767        4.6891839942
  C        44.4759066606       18.0740351827        5.4128104198
  C        41.8312813268       17.0859297080        2.8962363263
  C        41.8530115589       17.0906873926        1.4747984273
  C        43.0703131330       17.1890959717        0.7297844773
  C        46.1533100424       26.6372228958        0.7262217947
  C        46.1622527891       26.6560270799        3.5358629113
  C        14.0451533268       17.8319770416        5.7089169540
  C        15.3658816689       17.9074551196        5.0183236448
  C        15.6383260845       18.9245221173        4.0912843915
  C        16.8670534853       18.9635338692        3.4361875912
  C        17.8507405909       17.9846561025        3.6824722772
  C        17.5851127219       16.9964163341        4.6477525464
  C        16.3583740667       16.9568915094        5.3063753570
  C        19.1179962014       17.9622689171        2.9137214939
  C        19.0944444001       17.9403236004        1.4922228317
  C        17.8750516160       17.8301079927        0.7509355979
  C        28.7940105025       14.1166139589       10.3992813597
  C        28.1952803547       12.9366317022       11.0878511087
  C        28.9241188467       12.1971510656       12.0308361456
  C        28.3335720562       11.1132048592       12.6765565979
  C        26.9999258281       10.7457099512       12.4047525050
  C        26.2934225726       11.4661918505       11.4249863707
  C        26.8818903386       12.5487734910       10.7767544504
  C        26.3354426040        9.6602620950       13.1627700123
  C        26.3194797048        9.6857136120       14.5837331761
  C        26.8193232367       10.7992633351       15.3307149063
  C        32.1804325816       21.2398029617       10.1443660436
  C        32.7766055525       22.4058580535       10.8622994053
  C        32.0276950274       23.0878917537       11.8335609753
  C        32.5988900138       24.1274149051       12.5611327324
  C        33.9345583982       24.5134488624       12.3373722203
  C        34.6659637538       23.8507837536       11.3338882526
  C        34.0971580093       22.8052666461       10.6087415489
  C        34.5627223556       25.5894138067       13.1374805667
  C        34.5551645052       25.5600087748       14.5589215663
  C        34.0516717490       24.4416583274       15.2952741412
  C        25.7082623142        8.6075021745       15.3008733770
  C        25.7006441994        8.6093581685       12.4874735579
  C        32.1197558484       21.1962203065        5.8519923562
  C        32.7091571673       22.3515442040        5.1116588774
  C        31.9781131026       23.0009281171        4.1049170548
  C        32.5526591648       24.0413406012        3.3786619219
  C        33.8732999364       24.4589423699        3.6373272784
  C        34.5864320535       23.8213951964        4.6705484213
  C        34.0152568352       22.7785123470        5.3954782414
  C        34.5099135821       25.5451479780        2.8575430883
  C        34.5281066652       25.5373004763        1.4355788778
  C        34.0389800942       24.4310001036        0.6719148527
  C        40.6140167321       17.0849164151        0.7536462403
  C        40.6015534414       17.1153429364        3.5637865403
  C        28.7252943811       14.0965954225        5.7814287909
  C        28.1205697038       12.9423496122        5.0515518243
  C        28.8615757176       12.2343930917        4.0930536545
  C        28.2856493693       11.1681935422        3.4064527744
  C        26.9519778856       10.7842392071        3.6519052050
  C        26.2286029132       11.4780562081        4.6398442455
  C        26.8038154475       12.5434273311        5.3298370051
  C        26.3137895221        9.6898342424        2.8816730205
  C        26.3092266764        9.7012057213        1.4598946429
  C        26.8122765296       10.8080181474        0.7065037404
  C        18.1354307675        3.1810307255       10.3171255379
  C        17.4060739838        4.2782792464       11.0156837014
  C        16.3904841188        3.9998830297       11.9433329672
  C        15.7427475879        5.0398403001       12.6068551055
  C        16.0945134446        6.3835825447       12.3670694382
  C        17.0837136784        6.6531365335       11.4031232347
  C        17.7328177268        5.6158168255       10.7380445149
  C        15.4702140608        7.4912732594       13.1301434350
  C        15.4855322403        7.4905979714       14.5518592314
  C        16.1871271453        6.4970112420       15.3050330867
  C        42.9458834159       31.8595020087       10.0728706257
  C        43.6462617365       30.7718485982       10.8168188823
  C        44.5918382704       31.0931740986       11.8028463277
  C        45.1975618843       30.0876254796       12.5504888146
  C        44.8711008577       28.7345638507       12.3356577199
  C        43.9452264843       28.4202194485       11.3224926636
  C        43.3363924724       29.4253643889       10.5744711137
  C        45.4887023087       27.6552745607       13.1388435306
  C        45.4928791204       27.6809263964       14.5605345471
  C        44.8057832330       28.6889755836       15.3071454380
  C        14.8565706349        8.5630928002       15.2642289108
  C        14.8749096363        8.5630371514       12.4515621164
  C        42.9464721272       31.9615773968        5.8089463949
  C        43.6916919619       30.8854675639        5.0954648731
  C        44.6562984089       31.1913638740        4.1231704128
  C        45.2777987941       30.1717662315        3.4054458869
  C        44.9539792428       28.8214501644        3.6430518174
  C        44.0204708265       28.5237961061        4.6538113285
  C        43.3922310456       29.5405704238        5.3659927733
  C        45.5630031994       27.7240457553        2.8578034404
  C        45.5333421195       27.7173850923        1.4365054322
  C        44.8270355347       28.7076149833        0.6835385773
  C        35.1306729300       26.6326929294        0.7330050229
  C        35.1158132930       26.6053353987        3.5426791307
  C        18.1486344238        3.2469813615        5.7066421988
  C        17.4300381213        4.3438496702        4.9973751313
  C        16.4148546153        4.0525796043        4.0737771551
  C        15.7665470854        5.0832106977        3.3983819629
  C        16.1211760450        6.4284496706        3.6211371515
  C        17.1125188872        6.7118305050        4.5784339223
  C        17.7601899958        5.6829175451        5.2582074169
  C        15.4906743987        7.5241447720        2.8486882849
  C        15.4965847220        7.5075306014        1.4275520265
  C        16.1933550284        6.5058371224        0.6808481525
  H        10.6724126463       12.4658243634        3.9045842347
  H        11.6946308172       10.5509904489        2.6627276964
  H        15.3916746052       11.1686405182        4.7722407092
  H        14.3512147331       13.0714596985        6.0174292718
  H        13.3761476888       11.6311684405        1.2013437071
  H        50.3225903125       22.7484184229        3.9869553159
  H        49.3194378260       24.6228257888        2.6808592982
  H        45.6419278126       24.1610949674        4.8636844701
  H        46.6628397570       22.2902250831        6.1720155045
  H        47.6296642533       23.5758083212        1.2461711638
  H        14.8721236657        8.5882947408        4.6085815849
  H        50.2870902013       22.7026370197       12.0602869191
  H        49.2691204944       24.5755083579       13.3603408015
  H        45.6104650361       24.1091305208       11.1460577420
  H        46.6525466952       22.2538154919        9.8318070075
  H        47.6077241499       23.5517964270       14.7968371833
  H        40.6350369500       17.0636225396       11.4108571504
  H        48.6871004802       14.0950078422        7.8000344780
  H        10.6812880117       12.4666630242       12.0932854003
  H        11.6895413587       10.5247390984       13.2970150384
  H        15.3934888113       11.1589089069       11.2055840525
  H        14.3649841827       13.0873408010        9.9902876017
  H        13.3757849797       11.6221337818       14.7531291922
  H        47.9301266381       14.2185984278        9.7106964891
  H        47.7799632744       14.3736905309        6.4953276410
  H        49.0827682066       18.5519105715       10.8670807400
  H        10.4159976944       14.1343700730        7.9987292348
  H        24.4832124535        3.0276950045        3.9161464680
  H        25.6239609709        4.8852096064        2.6881159135
  H        23.2470396557        7.7542506620        4.8370816224
  H        22.1250860454        5.8869602181        6.0672098429
  H        23.8213304736        5.7868224060        1.2547903044
  H        36.3704966248       32.1872653025        3.9720824175
  H        35.2436571292       30.3637422578        2.6934255963
  H        37.5134992795       27.4388846867        4.8831131692
  H        38.6197605569       29.2750864897        6.1714692037
  H        37.0127872265       29.4579228654        1.2727878568
  H        25.7306980910        8.6121088029        4.6460724891
  H        36.4531277162       32.2451336296       12.1064052202
  H        35.3381231279       30.4280683946       13.4011843244
  H        37.5264436978       27.4898982323       11.1457675062
  H        38.6155574153       29.3186330872        9.8377816637
  H        37.0330664922       29.4788605024       14.8249011802
  H        46.1092846979       26.5875222767       11.3855336427
  H        44.6681968824       35.1161227475        7.8139525855
  H        24.4462867116        3.0364107150       12.0769411014
  H        25.5868326577        4.8727894753       13.3235784497
  H        23.1819764817        7.7671408905       11.2414419459
  H        22.0535838572        5.9188275555        9.9940739307
  H        23.8088315064        5.7864575046       14.8063409605
  H        44.9535472296       34.3900656900        9.6949280529
  H        44.9014451027       34.2067021230        6.4906164981
  H        40.6658579759       33.2089978374       10.8529823235
  H        23.1507088666        1.9577429525        8.0047285262
  H        25.8021741025       19.6782884734        3.9318371591
  H        23.6336718459       19.7226192622        2.7006558003
  H        22.3596731372       16.2113540411        4.8323177664
  H        24.5363752348       16.1782073865        6.0581998013
  H        23.7233493444       17.6911193602        1.2483350587
  H        35.1503243448       15.4384098123        4.0023966232
  H        37.2717674669       15.3908295560        2.6852773593
  H        38.6905322029       18.8116989290        4.8733374456
  H        36.5660814497       18.8375805036        6.1942523748
  H        37.2224680231       17.3565818822        1.2418523257
  H        20.3560620732       17.9820812871        4.6694641715
  H        35.1567679581       15.4294790124       12.0820597775
  H        37.2969164572       15.3515640368       13.3659853376
  H        38.7249836672       18.7659533271       11.1740767149
  H        36.5833075542       18.8212664648        9.8843064012
  H        37.2324781647       17.3387947948       14.7900371056
  H        35.1488525323       26.6868478438       11.3910981809
  H        28.5065776482       21.0908750641        7.8899359676
  H        25.7514463623       19.6420380400       12.1482705175
  H        23.5670299468       19.6991414283       13.3647901534
  H        22.3049212928       16.1765631472       11.2451728532
  H        24.4899295667       16.1409183659       10.0258689287
  H        23.7025395258       17.6745483324       14.7978359761
  H        29.0061620255       21.7249319087        9.7426489698
  H        29.1733167100       21.7374417130        6.5560239667
  H        32.0685851483       18.5621223645       10.9901552952
  H        27.4037610391       19.0809683362        8.0849890868
  H        14.8495358029       19.6509387022       12.1370920647
  H        17.0121285451       19.6992380761       13.3798525598
  H        18.3033789506       16.1892273227       11.2559690758
  H        16.1367940904       16.1567996235       10.0126282588
  H        16.9213562505       17.7041100633       14.8471378801
  H        46.0908891853       15.4315640957       12.0573813219
  H        43.9641416535       15.3611454121       13.3600661886
  H        42.5399717635       18.7969595128       11.1988602558
  H        44.6672959857       18.8422325809        9.8854080483
  H        44.0169970863       17.3060128856       14.8210514927
  H        20.2920839163       17.9241896627       11.4215874254
  H        46.0423185869       15.3862783744        4.0326397914
  H        43.9131468782       15.3221582956        2.7353377478
  H        42.5218018438       18.7927869931        4.8611496473
  H        44.6570912934       18.8424909312        6.1603165132
  H        44.0063006440       17.2966342459        1.2703028009
  H        46.1990390049       26.6825464746        4.6233108913
  H        52.7411301936       21.0626354141        8.1946674490
  H        14.8772841732       19.6780800191        3.9009629955
  H        17.0777304394       19.7551814648        2.7203528267
  H        18.3361825278       16.2343578208        4.8453996055
  H        16.1377195385       16.1811843776        6.0356145028
  H        16.9414335213       17.7209070061        1.2945496146
  H        52.3223220157       21.6732765409        6.2943795143
  H        52.0132460051       21.7020938901        9.4956663150
  H        49.0673878892       18.6077749278        5.2040761955
  H        13.2473957962       19.0164340583        7.9773402866
  H        29.9515795498       12.4845058507       12.2428250690
  H        28.9007523130       10.5383034031       13.4054545073
  H        25.2629544530       11.1929046546       11.2073336231
  H        26.3340182277       13.1251671670       10.0353666650
  H        27.1826381543       11.6684562546       14.7910173295
  H        31.0012060982       22.7775984721       12.0128119099
  H        32.0135446279       24.6552603260       13.3108858361
  H        35.6996837873       24.1399620043       11.1556283808
  H        34.6672419102       22.2677883303        9.8544266712
  H        33.7006936929       23.5720531556       14.7470389028
  H        25.7314532674        8.5912339476       11.3994488916
  H        30.9623745259       22.6694661847        3.9007347278
  H        31.9781515009       24.5487038132        2.6067013768
  H        35.6087645208       24.1322215360        4.8758046368
  H        34.5703833967       22.2656473436        6.1775254414
  H        33.6790656265       23.5522546147        1.1990528340
  H        40.5968730608       17.0857935311        4.6517259694
  H        32.5060395911       14.1483351343        8.2525484732
  H        29.8919888648       12.5283972319        3.9066590798
  H        28.8681713309       10.6149030891        2.6729677257
  H        25.1968806021       11.1938725774        4.8367093110
  H        26.2425575139       13.0941950890        6.0809544902
  H        27.1687649214       11.6841233664        1.2401987230
  H        33.2943266360       14.2087866831        6.4421854077
  H        33.4035648922       14.4126921754        9.5999749125
  H        32.1268335504       18.5183354646        5.1762610885
  H        30.1912298779       14.1516468222        8.0791726714
  H        16.1185329794        2.9633641944       12.1298154175
  H        14.9533827758        4.8204215285       13.3225976318
  H        17.3659907463        7.6860303465       11.2098829004
  H        18.5147014968        5.8184919179       10.0100375702
  H        16.7536818856        5.7396690721       14.7715348137
  H        44.8281410138       32.1402542987       11.9770083220
  H        45.9374608866       30.3413657288       13.3064046985
  H        43.6824787863       27.3781567227       11.1524162586
  H        42.5997415620       29.1900102935        9.8098452098
  H        44.2304193906       29.4367257529       14.7688276741
  H        14.8511018560        8.5462549525       11.3633427661
  H        44.8998819676       32.2340387513        3.9317428468
  H        46.0247155668       30.4129734712        2.6522139137
  H        43.7634639107       27.4840741444        4.8453576492
  H        42.6457291990       29.3177653998        6.1244327169
  H        44.2684967683       29.4704886325        1.2181086513
  H        35.0725781031       26.6165950213        4.6301441082
  H        36.6050554137       35.1341086928        8.1806283269
  H        16.1437847993        3.0129997971        3.9040456278
  H        14.9742296959        4.8563605550        2.6882893394
  H        17.3959861919        7.7473029241        4.7553605126
  H        18.5430316719        5.8933676844        5.9830089405
  H        16.7647956630        5.7556014788        1.2192860439
  H        36.2785947076       34.4824078657        6.2732005981
  H        36.3808652356       34.2092391569        9.4996411418
  H        40.5800305936       33.2024554290        5.1535390279
  H        17.4708658612        1.9474050970        7.9740860607
  H        29.1955501985       19.4390215712       12.5037029506
  H        28.9759098509       18.9907393462        3.6928946191
  H        30.8510887957       15.6143288143        3.7219429799
  H        31.2444026259       15.6257566209       12.5370280589
  H        28.0482504339       17.9027829519       14.4389546635
  H        29.2243903609       15.6123310107       14.4948482651
  H        31.2226065684       19.6691694457        1.5021668291
  H        32.6011314018       17.1325892317        1.4866956254
  H        18.8535096508        0.8691769615       12.3352810027
  H        40.5278635142       35.2289596373        3.9520224244
  H        42.3239270878       34.4186255804        3.5905504267
  H        22.0877778745        0.6919599123       12.3516039972
  H        11.5970633504       18.7127547539       12.3823070642
  H        52.2650036627       18.4310784371        3.6776008180
  H        49.2551645274       16.4768667055        3.5845358135
  H        10.1503704184       15.7982280226       12.2927953673
  H        50.8500586172       17.6924830069        3.9542441012
  H        10.0461388496       17.3945861670       12.0519828453
  H        20.2146397767        0.0022591005       12.0420087747
  H        39.1835890650       36.1244671706        3.6864767148
 Ni        30.8181089470       17.7952890446        2.9148051333
 Ni        30.8175515933       16.5693609489       -0.0004463822
 Ni        29.7584579757       18.5519560614       -0.0004906790
 Ni        30.0517279211       17.4485011755       13.1591072329
  O        10.6499423111       14.3651552985        5.4858283322
  O        12.6131762128       14.6575466822        6.5839052595
  O        49.1477723275       16.8459468688        7.9897763612
  O        50.3501057050       20.9360227294        5.6481837604
  O        48.3484678387       20.5932642667        6.6659930103
  O        11.0515108133       17.0539097940        6.5007113896
  O        50.3209823039       20.8816538485       10.4068326217
  O        48.3467195562       20.5866961392        9.3271177084
  O        49.5435935298       18.2484200330       10.0682480291
  O        12.3589651291       18.6246011521        7.9997212737
  O        48.6932112138       14.1486296050        6.7512925743
  O         8.2099033579       14.2104124171        9.3225239005
  O        10.7353354205       14.5067338206       10.6643343483
  O        12.5718137951       14.5828384888        9.3285037888
  O        22.8448069199        2.0433820128        5.4871688448
  O        21.6057686977        3.5925561508        6.5893924522
  O        42.0582360603       34.1374103009        7.9789036097
  O        37.9815646810       33.1375326183        5.5725289738
  O        39.2180025900       31.5759737307        6.6664606793
  O        20.3084272285        1.0396813458        6.5021277532
  O        38.0250267836       33.1866566444       10.4147941049
  O        39.2193507125       31.5840539154        9.3262271730
  O        40.6523261609       33.7694105195       10.0601705589
  O        18.2555197541        1.3761938165        7.9967762728
  O        44.6222126017       35.1005522890        6.7587397736
  O        24.2054272487       -0.0000078409        9.3207926112
  O        22.7531317871        2.0574514647       10.5837885387
  O        21.6249724710        3.5965490698        9.3435817428
  O        27.4984801257       18.7536449863        5.4928102057
  O        26.7609487796       16.9382027508        6.6514601114
  O        30.6684549233       19.4096534042        8.0619684884
  O        33.5848273398       16.2758524645        5.6691573261
  O        34.2745905392       18.1662957825        6.7380922145
  O        29.5700297086       17.0602137599        6.5923784037
  O        33.5533744761       16.3384091464       10.4151549514
  O        34.3007204716       18.2378602465        9.4072822954
  O        31.6523717656       18.3149525324       10.1475620468
  O        30.2948811874       15.1166852358        8.0835154295
  O        28.5560082301       21.0366976137        6.8356012666
  O        28.5140875761       20.9575532513        9.4043773985
  O        27.4595040797       18.6798318927       10.6595585683
  O        26.6935725174       16.9301020995        9.4133718889
  O        13.1487844897       18.6929951476       10.5874243404
  O        13.9195514764       16.9162641240        9.4051994482
  O        50.5958795145       19.3501658922        8.0205540129
  O        47.6831028418       16.3269340069       10.4171572375
  O        46.9504996881       18.1755721899        9.3254680180
  O        11.0696563370       17.0155875182        9.4896444487
  O        47.6755985484       16.3358970344        5.6528139177
  O        46.9259043220       18.2358264621        6.6636743276
  O        49.5684890964       18.3177158786        5.9823186704
  O        10.3187274189       15.1002283732        7.9970821792
  O        52.6707503041       21.0278891022        9.2418241742
  O        12.1468011421       20.8911931749        6.6732449080
  O        13.1077641287       18.6137648801        5.3257121498
  O        13.9571925072       16.9870715851        6.6653546643
  O        29.9642480983       14.5028397961       10.7430731871
  O        28.0787915737       14.6559072465        9.4900294481
  O        32.0746468677       16.8612631276        8.0815022108
  O        30.9653741694       20.9535882427       10.4081667286
  O        32.9469689336       20.6008055226        9.3381951113
  O        29.5618791719       17.0772699567        9.5722140522
  O        30.9066551374       20.8838129163        5.5937776835
  O        32.8830151778       20.5833152856        6.6701182463
  O        31.6854026268       18.2503248362        6.0001318509
  O        28.2875406045       18.6790506917        8.0733768172
  O        32.4883973840       14.2142337657        9.3296405471
  O        32.4005853080       14.2133773459        6.8235061590
  O        29.8782790794       14.5043187669        5.4138323317
  O        28.0406177703       14.5861241957        6.7460917268
  O        17.8892421448        1.9667068712       10.6628029705
  O        18.9563013269        3.5271786401        9.4079644053
  O        39.1686888701       34.1388657269        7.9971442037
  O        43.2802233736       33.0589537486       10.3316931589
  O        42.0345363620       31.5064544461        9.2415952321
  O        20.3177705158        1.0368246451        9.4800763891
  O        43.2760938804       33.1825885741        5.5748985687
  O        42.0052884984       31.5840975997        6.5829622331
  O        40.5789705576       33.7749745065        5.9357775874
  O        22.3673908971        1.3847924649        7.9979609108
  O        36.6727240449       35.0998537193        9.2332409090
  O        16.4455585618        0.0642692530        6.6682512346
  O        17.9364897453        2.0434047649        5.3263927960
  O        18.9191207746        3.5931377826        6.6659617054
  O        29.8180801727       18.8222876507        4.1526806789
  O        29.8582616437       18.9298468511       11.9984730143
  O        31.2151821117       16.4088870557        4.1544299808
  O        31.2673477504       16.4801497148       12.0645800863
  O        31.7013422813       16.7722081474        1.5874141468
  O        30.1257338049       15.9684659509       14.3955925872
  O        30.4179783770       19.1283012063        1.6023488842
  O        28.8882704215       18.3923867114       14.3729195895
  O        39.4567068702       35.2438271137        4.0020009801
  O        19.1413466463        0.0046955454       11.9905432702
  O        41.9694436816       35.1724725232        4.0871473737
  O        21.6912814179       -0.0693672229       11.8958845266
  O        51.3651062408       18.6143096128        4.0054496180
  O        10.7511789409       18.7471275539       11.9049153791
  O        50.0796141324       16.4128057905        4.0918015700
  O         9.5245285766       16.4830774373       11.9912283132
 Zr         9.2967333464       16.0528132030        6.1824063094
 Zr        49.8363617922       16.0068000217        9.7465228486
 Zr        22.0731800433        0.0298853301        6.1890215905
 Zr        42.4608927898       35.1534038171        9.8009758781
 Zr        29.6134915119       19.0783862015        6.2853619995
 Zr        29.5822125385       19.1825130092        9.8480917781
 Zr        11.0379189498       19.0520168583        9.8277488147
 Zr        11.0437019060       19.1548621943        6.2511660964
 Zr        31.3290243942       16.1074236968        9.8789559833
 Zr        31.3797984576       16.0150978483        6.2893452073
 Zr        18.6011482415       -0.0012097182        9.7632850462
 Zr        18.5064433348       -0.0077673841        6.2137370798
 Zr        12.3020768564       16.3236024932        7.9903262249
 Zr        48.6159429025       18.8329377991        8.0103543845
 Zr        20.3154189408        2.4735968353        7.9906971025
 Zr        40.6434621699       32.6870354336        7.9780765663
 Zr        28.3394090710       16.3395542626        8.0798077319
 Zr        32.6303852917       18.8383976268        8.0539391583
