     568
 i =      136, E =     -4744.4319304082
  C        11.8587122340       14.0535780215        5.7415609960
  C        12.4562512558       12.8906461267        5.0232433048
  C        11.7045723836       12.1717078297        4.0815836289
  C        12.2809624021       11.1094995113        3.3892445809
  C        13.6215365684       10.7397151199        3.6169973122
  C        14.3547005952       11.4433176493        4.5904432442
  C        13.7817991726       12.5082992410        5.2819368785
  C        14.2610717192        9.6490388471        2.8436182861
  C        14.2564140443        9.6569637549        1.4219198042
  C        13.7432459056       10.7590906744        0.6680199229
  C        49.1266347512       21.2332576561        5.8797606857
  C        48.5498389942       22.4011456136        5.1526674554
  C        49.2998791054       23.0684442738        4.1716596277
  C        48.7329499356       24.1075561558        3.4384313410
  C        47.4024084557       24.5092042169        3.6670405656
  C        46.6714391130       23.8603421823        4.6805510617
  C        47.2338854575       22.8154563889        5.4099354317
  C        46.7722058737       25.5869025015        2.8697432852
  C        46.7612718810       25.5573095062        1.4479792525
  C        47.2611863368       24.4422040179        0.7044897560
  C        14.8603619071        8.5706276783        0.7086603088
  C        14.8918221663        8.5970770734        3.5202722973
  C        49.1131671088       21.2034141692       10.1453425217
  C        48.5278160300       22.3647772225       10.8724806197
  C        49.2670549192       23.0254735688       11.8654057371
  C        48.6907379864       24.0600330028       12.5968640274
  C        47.3603325132       24.4568323108       12.3586150011
  C        46.6399108335       23.8119428058       11.3350864135
  C        47.2134435488       22.7760203792       10.6033083134
  C        46.7218990813       25.5318138341       13.1496346647
  C        46.7335996901       25.5281628455       14.5713382708
  C        47.2489618627       24.4289201322       15.3277271176
  C        40.6208340108       17.0821129414       15.3083162578
  C        40.6309888468       17.0979548965       12.4984469151
  C        11.8829428308       14.0865565978       10.2855017271
  C        12.4722861799       12.9107573770       10.9897456201
  C        11.7147918177       12.1775951673       11.9159005954
  C        12.2813773703       11.0951377712       12.5843173666
  C        13.6201795187       10.7213742526       12.3524518897
  C        14.3581294459       11.4368990275       11.3915985794
  C        13.7927044321       12.5180725892       10.7189077012
  C        14.2537973422        9.6246256294       13.1228547576
  C        14.2525663326        9.6446116295       14.5446934143
  C        13.7427015347       10.7535645565       15.2917666447
  C        22.5114841720        3.2444335344        5.7520734780
  C        23.2254798351        4.3486377608        5.0498561632
  C        24.2218990239        4.0660891221        4.1037698572
  C        24.8499791387        5.1036940270        3.4197460663
  C        24.4972594688        6.4463058011        3.6613694397
  C        23.5283403398        6.7203730422        4.6439483443
  C        22.8957905738        5.6845492734        5.3265816989
  C        25.1057038478        7.5514108976        2.8856339930
  C        25.0832692064        7.5431659212        1.4638458308
  C        24.3842783830        6.5433338853        0.7153922416
  C        38.3021749765       31.9291544789        5.8491955251
  C        37.5716330713       30.8397103911        5.1402440120
  C        36.6094102048       31.1437356363        4.1650606871
  C        35.9911078094       30.1237492657        3.4472154376
  C        36.3204151425       28.7744968484        3.6825488781
  C        37.2528857608       28.4778414364        4.6944373936
  C        37.8750489216       29.4965428579        5.4114239258
  C        35.7184704338       27.6831520656        2.8840803526
  C        35.7489201829       27.7005811225        1.4626213579
  C        36.4514639091       28.7059057627        0.7261502481
  C        25.7080392941        8.6131006959        0.7453752004
  C        25.7006165372        8.6269524608        3.5576815469
  C        38.3287679451       31.9628737946       10.1556833774
  C        37.6063727131       30.8906187057       10.8970934778
  C        36.6763146165       31.2006538990       11.9010347656
  C        36.0652741566       30.1829423062       12.6305934287
  C        36.3705518157       28.8303657452       12.3794648182
  C        37.2781967402       28.5302958004       11.3453183472
  C        37.8911873203       29.5444490309       10.6168995424
  C        35.7624742155       27.7317080147       13.1633543567
  C        35.7711996181       27.7256833996       14.5852940094
  C        36.4618175526       28.7181788912       15.3493655914
  C        46.1355961523       26.6208060869       15.2814664134
  C        46.0879534926       26.5801718307       12.4735714632
  C        22.4633013091        3.2558066595       10.2564635984
  C        23.1632334374        4.3636627949       10.9758446778
  C        24.1703019128        4.0756996219       11.9108635299
  C        24.8035930797        5.1044426000       12.6042771524
  C        24.4499896799        6.4510314828       12.3858138913
  C        23.4664820316        6.7323550890       11.4186158173
  C        22.8288253651        5.7038604581       10.7253361429
  C        25.0829034668        7.5476065311       13.1611914022
  C        25.0724592645        7.5405541292       14.5840555226
  C        24.3773107777        6.5431437406       15.3384554264
  C        26.6201271134       17.8635175631        5.7797630726
  C        25.3124072004       17.9115895898        5.0562715411
  C        25.0474032099       18.9154736804        4.1113303206
  C        23.8340365257       18.9363250324        3.4260334036
  C        22.8481505275       17.9573823322        3.6647715525
  C        23.1084259395       16.9766957360        4.6405389103
  C        24.3240866985       16.9500516462        5.3226330891
  C        21.5750439341       17.9439663408        2.9001049794
  C        21.5760049623       17.9252482869        1.4776161443
  C        22.7825401730       17.8053047882        0.7182380341
  C        34.4378864039       17.1924773864        5.9203531305
  C        35.7303959512       17.1437875300        5.1734489701
  C        35.9348930494       16.1698170935        4.1833898086
  C        37.1149654784       16.1536011796        3.4449131201
  C        38.1231288773       17.1099800315        3.6758740437
  C        37.9206796969       18.0651687440        4.6902170214
  C        36.7378891481       18.0866439020        5.4264448143
  C        39.3766405675       17.1140162140        2.8871047721
  C        39.3692477262       17.1151170123        1.4651120702
  C        38.1602487267       17.2286029886        0.7090464656
  C        20.3299054247       17.9417168712        0.7681015092
  C        20.3499959158       17.9439125604        3.5816543124
  C        34.4385709075       17.2363364804       10.1886328559
  C        35.7395719117       17.1358532246       10.9119931440
  C        35.9466608262       16.1514619073       11.8896833891
  C        37.1379435809       16.1180377702       12.6106836929
  C        38.1507568585       17.0682358317       12.3743106377
  C        37.9497397158       18.0257615100       11.3625464293
  C        36.7581382660       18.0638016907       10.6445592945
  C        39.4010093246       17.0823733115       13.1663622724
  C        39.3816799024       17.0987517309       14.5877220740
  C        38.1659030981       17.2188953206       15.3323026070
  C        35.1432244777       26.6446937856       15.2884150666
  C        35.1747458774       26.6604360086       12.4791427384
  C        26.5738987657       17.8285340640       10.3256329791
  C        25.2589785888       17.8732097746       11.0337555010
  C        24.9925414565       18.8829650838       11.9708640579
  C        23.7748108871       18.9097829139       12.6451770348
  C        22.7935186924       17.9271681317       12.4050696833
  C        23.0542750705       16.9420212845       11.4355356491
  C        24.2730092475       16.9129425761       10.7600353712
  C        21.5292297242       17.9111467150       13.1773062561
  C        21.5524399191       17.9066329324       14.5988293885
  C        22.7707356877       17.7959888810       15.3417941624
  C        14.0468140130       17.8290176706       10.2888052095
  C        15.3514121256       17.8867385479       11.0140521453
  C        15.6082401322       18.8913656905       11.9601436285
  C        16.8172612563       18.9132499580       12.6529681319
  C        17.8039358673       17.9333415447       12.4220444563
  C        17.5518348464       16.9528203309       11.4438779505
  C        16.3422557541       16.9264144384       10.7525241397
  C        19.0729267355       17.9178512762       13.1914762319
  C        19.0709609174       17.9178865694       14.6140235890
  C        17.8636072946       17.8196517879       15.3748557283
  C        46.8025473314       17.2159764232       10.1566652093
  C        45.5090592270       17.1451767769       10.8967548270
  C        45.3044089898       16.1609233544       11.8763021438
  C        44.1204248315       16.1323973576       12.6085234477
  C        43.1100895855       17.0878986956       12.3839397885
  C        43.3112570365       18.0508310644       11.3763941348
  C        44.4962339533       18.0833025929       10.6449230742
  C        41.8569676667       17.0911255478       13.1740639474
  C        41.8659326105       17.0950049055       14.5963181729
  C        43.0763028911       17.1952791656       15.3521594833
  C        20.3173644972       17.9314555907       15.3230241109
  C        20.2975869139       17.8970367513       12.5099902462
  C        46.7851059688       17.2325337135        5.8862135946
  C        45.4838896918       17.1286462830        5.1656434430
  C        45.2659361489       16.1284617001        4.2057692367
  C        44.0788950146       16.1003558975        3.4776424926
  C        43.0794264254       17.0696428536        3.6913145490
  C        43.2887499674       18.0412221122        4.6880235560
  C        44.4767048050       18.0753599766        5.4117313753
  C        41.8315903997       17.0871361232        2.8957537372
  C        41.8531353715       17.0919360290        1.4743439376
  C        43.0703300171       17.1907625148        0.7292070755
  C        46.1533153917       26.6372170183        0.7262235516
  C        46.1622590240       26.6560273296        3.5358650927
  C        14.0451296105       17.8319477938        5.7089315964
  C        15.3658741019       17.9073053645        5.0183673899
  C        15.6385262760       18.9244015315        4.0914284155
  C        16.8672720530       18.9632067968        3.4363506689
  C        17.8507292738       17.9840933174        3.6825735231
  C        17.5849129250       16.9958375162        4.6477749309
  C        16.3581645709       16.9565209535        5.3063780604
  C        19.1179865951       17.9614695887        2.9138483990
  C        19.0944604323       17.9393383930        1.4923590998
  C        17.8750643301       17.8292121113        0.7510750801
  C        28.7940816306       14.1169365493       10.3994312501
  C        28.1949007261       12.9373940696       11.0882486504
  C        28.9230934799       12.1982204355       12.0319422386
  C        28.3320903848       11.1145063950       12.6775706203
  C        26.9986412984       10.7469461653       12.4049178515
  C        26.2927487483       11.4671552086       11.4245356455
  C        26.8816690001       12.5495424406       10.7764333178
  C        26.3339566011        9.6614909796       13.1626390652
  C        26.3177967804        9.6868197222       14.5835865574
  C        26.8170100729       10.8005414944       15.3307385916
  C        32.1804491337       21.2396790193       10.1447041920
  C        32.7765333060       22.4054411091       10.8630198871
  C        32.0272667629       23.0876925728       11.8338592845
  C        32.5981882616       24.1273713385       12.5614081455
  C        33.9339316222       24.5133397741       12.3380250813
  C        34.6657776630       23.8502978130       11.3351137622
  C        34.0972511901       22.8046336530       10.6099880706
  C        34.5619241077       25.5895007344       13.1379955917
  C        34.5544495485       25.5601446798       14.5594284913
  C        34.0505370991       24.4420545112       15.2959066076
  C        25.7071994334        8.6081466850       15.3005077202
  C        25.6996886901        8.6104318713       12.4871061728
  C        32.1198181022       21.1963624255        5.8521393812
  C        32.7090214663       22.3520201979        5.1123636244
  C        31.9780636201       23.0010985795        4.1053893771
  C        32.5525667432       24.0417029514        3.3793987701
  C        33.8731262230       24.4594492267        3.6381946109
  C        34.5861597165       23.8221493856        4.6716652809
  C        34.0149457500       22.7793147618        5.3966114033
  C        34.5099720014       25.5453230231        2.8581273947
  C        34.5278609382       25.5374686938        1.4361234593
  C        34.0380006542       24.4314297307        0.6725518621
  C        40.6140467329       17.0856812330        0.7534061456
  C        40.6019808251       17.1161177573        3.5635456007
  C        28.7249963360       14.0964553851        5.7813159554
  C        28.1204678397       12.9420635783        5.0515209305
  C        28.8612972505       12.2346273790        4.0924692095
  C        28.2854627112       11.1683605784        3.4058600584
  C        26.9520688427       10.7837315552        3.6518318730
  C        26.2289350926       11.4769788543        4.6403688422
  C        26.8040064200       12.5424579422        5.3303312905
  C        26.3138368285        9.6893770050        2.8814667520
  C        26.3084081003        9.7014033778        1.4596885630
  C        26.8104345439       10.8088352257        0.7065317301
  C        18.1354294488        3.1810229445       10.3171223298
  C        17.4060491187        4.2782727254       11.0156614321
  C        16.3904497419        3.9998777289       11.9432996898
  C        15.7427130511        5.0398357767       12.6068222918
  C        16.0944971666        6.3835768391       12.3670566720
  C        17.0836989496        6.6531286634       11.4031113253
  C        17.7328011111        5.6158090995       10.7380308732
  C        15.4702091948        7.4912709906       13.1301371232
  C        15.4855293627        7.4905928134       14.5518545268
  C        16.1870814272        6.4969779667       15.3050309595
  C        42.9458958540       31.8595028033       10.0728714497
  C        43.6462803090       30.7718538174       10.8168226715
  C        44.5918545559       31.0931865309       11.8028503271
  C        45.1975885382       30.0876422443       12.5504901001
  C        44.8711359926       28.7345784481       12.3356591631
  C        43.9452636019       28.4202280847       11.3224951697
  C        43.3364200422       29.4253682506       10.5744745071
  C        45.4887370624       27.6552882639       13.1388450992
  C        45.4929065181       27.6809337989       14.5605362434
  C        44.8058031136       28.6889788235       15.3071449321
  C        14.8565810994        8.5630946934       15.2642261307
  C        14.8749313594        8.5630526389       12.4515578823
  C        42.9464599347       31.9615714578        5.8089438840
  C        43.6916690579       30.8854627385        5.0954468801
  C        44.6562525249       31.1913620261        4.1231311326
  C        45.2777647040       30.1717654764        3.4054152542
  C        44.9539720708       28.8214469824        3.6430452427
  C        44.0204780610       28.5237911131        4.6538169140
  C        43.3922309766       29.5405647627        5.3659924281
  C        45.5630067691       27.7240436633        2.8578036783
  C        45.5333504654       27.7173820687        1.4365051521
  C        44.8270419420       28.7076100940        0.6835381488
  C        35.1307861493       26.6325793238        0.7333707153
  C        35.1165229731       26.6052736818        3.5430552920
  C        18.1486265255        3.2469787449        5.7066477828
  C        17.4300058905        4.3438456622        4.9973965017
  C        16.4148322710        4.0525695072        4.0737892485
  C        15.7665241742        5.0831989527        3.3983898849
  C        16.1211442739        6.4284400244        3.6211473486
  C        17.1124641824        6.7118239692        4.5784673454
  C        17.7601364862        5.6829151612        5.2582451316
  C        15.4906619752        7.5241423250        2.8486918635
  C        15.4965650995        7.5075165420        1.4275536112
  C        16.1933136430        6.5058090270        0.6808472631
  H        10.6724322606       12.4658140160        3.9045794097
  H        11.6946707002       10.5509838479        2.6627336085
  H        15.3917428869       11.1687506228        4.7721576524
  H        14.3512629596       13.0715667884        6.0173411431
  H        13.3762145818       11.6312010910        1.2013397743
  H        50.3225890261       22.7484040589        3.9869394649
  H        49.3194332795       24.6228137467        2.6808479984
  H        45.6419405475       24.1611054285        4.8637030821
  H        46.6628536291       22.2902357735        6.1720304263
  H        47.6296251466       23.5757834331        1.2461732484
  H        14.8721393731        8.5883151832        4.6085789428
  H        50.2870904161       22.7025994418       12.0603251590
  H        49.2691226674       24.5754654952       13.3603878336
  H        45.6104985500       24.1091674914       11.1460374866
  H        46.6525687099       22.2538467557        9.8317905034
  H        47.6076869414       23.5517734452       14.7968392483
  H        40.6344865027       17.0635137137       11.4106317976
  H        48.6871021194       14.0950102687        7.8000361802
  H        10.6813201933       12.4666659329       12.0933024858
  H        11.6895889842       10.5247362724       13.2970109847
  H        15.3935548688       11.1590006278       11.2056437097
  H        14.3650349326       13.0874401432        9.9903663413
  H        13.3758598974       11.6221693765       14.7531250070
  H        47.9301216019       14.2186002348        9.7107008953
  H        47.7799558119       14.3736868682        6.4953399503
  H        49.0827465630       18.5519106536       10.8670713464
  H        10.4160011158       14.1343720489        7.9987355987
  H        24.4820896797        3.0269167544        3.9151233458
  H        25.6233102182        4.8839841057        2.6868674934
  H        23.2482972887        7.7539168918        4.8367628720
  H        22.1258766461        5.8870354241        6.0671300249
  H        23.8219099270        5.7861005426        1.2539042690
  H        36.3710165764       32.1869531241        3.9717062137
  H        35.2446833358       30.3630735524        2.6929922315
  H        37.5147310038       27.4387771340        4.8832073012
  H        38.6205629750       29.2753234035        6.1715308832
  H        37.0143514608       29.4569170735        1.2727457124
  H        25.7318890815        8.6106154051        4.6456329276
  H        36.4533632530       32.2451221615       12.1068395301
  H        35.3383280058       30.4282051530       13.4016967549
  H        37.5252165354       27.4897913203       11.1452189195
  H        38.6145141024       29.3183784623        9.8372852023
  H        37.0337989996       29.4781184695       14.8248288313
  H        46.1093377875       26.5875470679       11.3855354620
  H        44.6681901537       35.1161163190        7.8139641095
  H        24.4472566245        3.0369353470       12.0760510491
  H        25.5875247047        4.8736475453       13.3224677935
  H        23.1817402938        7.7673508038       11.2405060960
  H        22.0537009826        5.9187246448        9.9933078780
  H        23.8091430727        5.7862905616       14.8054687130
  H        44.9535228777       34.3900588266        9.6949361142
  H        44.9014535271       34.2066999320        6.4906249424
  H        40.6658168459       33.2089738318       10.8529865135
  H        23.1507038703        1.9577308625        8.0046561240
  H        25.8026755639       19.6768452785        3.9302033412
  H        23.6341476592       19.7207420403        2.6991365367
  H        22.3589148597       16.2120050833        4.8342452455
  H        24.5356472156       16.1792294241        6.0600492639
  H        23.7233168099       17.6889435285        1.2485172917
  H        35.1511592161       15.4375770954        4.0031953216
  H        37.2727337853       15.3898888302        2.6864282475
  H        38.6902736296       18.8124101199        4.8727216549
  H        36.5659193220       18.8381273988        6.1936812391
  H        37.2224032418       17.3553803720        1.2420792197
  H        20.3559859042       17.9815630661        4.6696071231
  H        35.1564092893       15.4295198699       12.0822910846
  H        37.2966197315       15.3514890333       13.3660726759
  H        38.7247199513       18.7658354568       11.1740957101
  H        36.5830013660       18.8212230113        9.8843925096
  H        37.2321557844       17.3378333921       14.7902741817
  H        35.1477829528       26.6868021588       11.3914477635
  H        28.5067059507       21.0911727406        7.8895962559
  H        25.7520427530       19.6407815606       12.1499113891
  H        23.5675816704       19.6975315372       13.3663269216
  H        22.3048502418       16.1766491281       11.2442798060
  H        24.4899503861       16.1412801142       10.0252126178
  H        23.7025261653       17.6724777620       14.7981119944
  H        29.0064274735       21.7249115269        9.7424532989
  H        29.1723458484       21.7379259677        6.5551376257
  H        32.0674831623       18.5621311557       10.9900226567
  H        27.4039756755       19.0813499115        8.0852175126
  H        14.8498451116       19.6507073628       12.1372729589
  H        17.0124609958       19.6986692774       13.3799831868
  H        18.3029304109       16.1881631358       11.2564509666
  H        16.1363316597       16.1560807120       10.0131453097
  H        16.9213855824       17.7032671128       14.8472627549
  H        46.0907252115       15.4320009562       12.0577792877
  H        43.9638783711       15.3619184328       13.3603181359
  H        42.5394935001       18.7966536919       11.1975351857
  H        44.6669597916       18.8416657301        9.8843391681
  H        44.0167359432       17.3078275105       14.8203234912
  H        20.2921684174       17.9236217162       11.4217639565
  H        46.0421239777       15.3865474266        4.0324369280
  H        43.9130114886       15.3230116989        2.7349257896
  H        42.5229592496       18.7948140426        4.8596473457
  H        44.6582103278       18.8439925958        6.1589731040
  H        44.0063289000       17.2986892056        1.2696353496
  H        46.1990483072       26.6825478154        4.6233128868
  H        52.7411327014       21.0626355420        8.1946704938
  H        14.8776395802       19.6781308665        3.9011642181
  H        17.0781414771       19.7548620584        2.7205819860
  H        18.3358205795       16.2336032576        4.8453577869
  H        16.1373271739       16.1808144498        6.0355615306
  H        16.9414319297       17.7201783393        1.2946990385
  H        52.3223096801       21.6732705991        6.2943818375
  H        52.0132434916       21.7020861623        9.4956685434
  H        49.0674343144       18.6077973631        5.2040595007
  H        13.2474033314       19.0164160920        7.9773690615
  H        29.9504016788       12.4856158464       12.2445586090
  H        28.8987117722       10.5398242067       13.4070691302
  H        25.2624290980       11.1938068522       11.2062615203
  H        26.3343198736       13.1257673708       10.0345351144
  H        27.1796301200       11.6701382791       14.7912191384
  H        31.0007060287       22.7774931858       12.0128128056
  H        32.0125597905       24.6553718911       13.3108314685
  H        35.6996057439       24.1393556336       11.1573066053
  H        34.6676504946       22.2669314432        9.8560769549
  H        33.6989358418       23.5726206569       14.7478065347
  H        25.7306901490        8.5924706490       11.3990828959
  H        30.9628352559       22.6687169607        3.9002304358
  H        31.9781243273       24.5488297932        2.6072445192
  H        35.6084456747       24.1330475517        4.8770374888
  H        34.5700031615       22.2666253638        6.1788204646
  H        33.6775118278       23.5529381536        1.1997265067
  H        40.5975442343       17.0866333598        4.6514882246
  H        32.5062613214       14.1482216787        8.2519374525
  H        29.8914868912       12.5291027351        3.9055552006
  H        28.8678732396       10.6155848153        2.6718948207
  H        25.1974364386       11.1922989813        4.8376862786
  H        26.2428045137       13.0927690527        6.0818268677
  H        27.1666459135       11.6849589714        1.2403902080
  H        33.2940021266       14.2077824945        6.4415990033
  H        33.4035914912       14.4125162038        9.5998996739
  H        32.1271802813       18.5185813586        5.1763373136
  H        30.1917365573       14.1516053474        8.0793967276
  H        16.1184838658        2.9633598134       12.1297662323
  H        14.9533433987        4.8204147965       13.3225592652
  H        17.3659812363        7.6860223588       11.2098772235
  H        18.5146898466        5.8184822523       10.0100288686
  H        16.7536062113        5.7396129979       14.7715324779
  H        44.8281477444       32.1402685924       11.9770134082
  H        45.9374847828       30.3413870417       13.3064070421
  H        43.6825149309       27.3781648670       11.1524251946
  H        42.5997708893       29.1900079973        9.8098491196
  H        44.2304443031       29.4367322039       14.7688261681
  H        14.8511272185        8.5462731999       11.3633380150
  H        44.8998058300       32.2340398121        3.9316801732
  H        46.0246615532       30.4129783085        2.6521650154
  H        43.7634824107       27.4840679864        4.8453703731
  H        42.6457404122       29.3177558291        6.1244418808
  H        44.2684939693       29.4704778588        1.2181067151
  H        35.0735376309       26.6166439118        4.6305285870
  H        36.6050469429       35.1340951784        8.1806224007
  H        16.1437734206        3.0129878953        3.9040481237
  H        14.9742172758        4.8563429896        2.6882872559
  H        17.3959184851        7.7472976166        4.7554059956
  H        18.5429665119        5.8933651981        5.9830592701
  H        16.7647258556        5.7555499984        1.2192830673
  H        36.2785827377       34.4824055051        6.2732026868
  H        36.3808369743       34.2092498126        9.4996624937
  H        40.5800343896       33.2024402331        5.1535664950
  H        17.4708504977        1.9473838160        7.9740793129
  H        29.2017196107       19.4395904409       12.5009340427
  H        28.9638237506       18.9693075226        3.7032182462
  H        30.8322185538       15.6169221811        3.7307645152
  H        31.2492147988       15.6240523664       12.5350383116
  H        28.0581662917       17.8859794564       14.4224896018
  H        29.2145983335       15.6483040837       14.5126323976
  H        31.2530976979       19.6009339305        1.4385534062
  H        32.5767825254       17.1770810705        1.4558855846
  H        18.8534081991        0.8691734593       12.3352453011
  H        40.5278774019       35.2289671154        3.9520349650
  H        42.3238481293       34.4185605696        3.5905861613
  H        22.0877811586        0.6919437039       12.3516281536
  H        11.5970388498       18.7127727595       12.3823221210
  H        52.2649936623       18.4310848933        3.6775842560
  H        49.2551621580       16.4768261079        3.5845306372
  H        10.1503721696       15.7982330866       12.2927916938
  H        50.8500519014       17.6924834125        3.9542426767
  H        10.0461235136       17.3945930463       12.0519842404
  H        20.2145025337        0.0022497482       12.0420335735
  H        39.1835851173       36.1244616898        3.6864748170
 Ni        30.8170505063       17.7957124870        2.9146248593
 Ni        30.8145463110       16.5731994809       -0.0004153402
 Ni        29.7236408249       18.5657676095       -0.0008044685
 Ni        30.0522647481       17.4473379603       13.1588030943
  O        10.6499421193       14.3651521417        5.4858268502
  O        12.6131783823       14.6575471211        6.5839053128
  O        49.1477769242       16.8459460578        7.9897797210
  O        50.3501082351       20.9360114396        5.6481820413
  O        48.3484701591       20.5932622813        6.6659934928
  O        11.0515089541       17.0539112482        6.5007137072
  O        50.3209933639       20.8816557170       10.4068271117
  O        48.3467275067       20.5867051830        9.3271143780
  O        49.5435973010       18.2484212039       10.0682556752
  O        12.3589631927       18.6245995394        7.9997263871
  O        48.6932069158       14.1486300988        6.7512936981
  O         8.2098998814       14.2104137338        9.3225279290
  O        10.7353396215       14.5067354897       10.6643408934
  O        12.5718102455       14.5828506816        9.3285072233
  O        22.8447794436        2.0432796082        5.4871635378
  O        21.6058093542        3.5925586917        6.5893260721
  O        42.0582296808       34.1374066639        7.9789240139
  O        37.9815905492       33.1375137369        5.5725498910
  O        39.2180631582       31.5760042666        6.6665402483
  O        20.3084218559        1.0396767054        6.5021243562
  O        38.0250036112       33.1866172579       10.4148095415
  O        39.2193009516       31.5840199696        9.3262767801
  O        40.6523163706       33.7694029749       10.0601868606
  O        18.2555151981        1.3761840658        7.9967710740
  O        44.6222151963       35.1005478851        6.7587480528
  O        24.2054214028       -0.0000051251        9.3207982146
  O        22.7531517592        2.0575133429       10.5837860789
  O        21.6249646184        3.5965298007        9.3434916037
  O        27.4984715103       18.7534143428        5.4925633360
  O        26.7608786707       16.9382256969        6.6515218504
  O        30.6686242352       19.4096591889        8.0616682693
  O        33.5848262486       16.2759451985        5.6691003094
  O        34.2746860394       18.1662613204        6.7380862398
  O        29.5700843998       17.0602515294        6.5923600557
  O        33.5531143846       16.3383759158       10.4151571594
  O        34.3007108995       18.2377626232        9.4072377785
  O        31.6527235859       18.3147883845       10.1467357775
  O        30.2949838159       15.1166951802        8.0833292000
  O        28.5559657094       21.0366772294        6.8354738715
  O        28.5141153556       20.9575647761        9.4044484456
  O        27.4597193477       18.6798426122       10.6595852337
  O        26.6936471570       16.9301515839        9.4133683753
  O        13.1488351344       18.6929795569       10.5874427697
  O        13.9195573485       16.9162524398        9.4051941891
  O        50.5958846871       19.3501676987        8.0205634925
  O        47.6830489107       16.3269504139       10.4171662314
  O        46.9504963150       18.1755781941        9.3254437638
  O        11.0696544411       17.0155914653        9.4896525191
  O        47.6755921287       16.3359145268        5.6527910149
  O        46.9259745918       18.2358506975        6.6636928238
  O        49.5684971421       18.3177176009        5.9823214898
  O        10.3187225366       15.1002280736        7.9970747678
  O        52.6707501740       21.0278824197        9.2418252324
  O        12.1467994125       20.8911918285        6.6732448133
  O        13.1077777799       18.6137678220        5.3257178668
  O        13.9571667278       16.9870615024        6.6653809528
  O        29.9644963169       14.5029619470       10.7429718671
  O        28.0789368799       14.6560079540        9.4899625655
  O        32.0747768361       16.8613036220        8.0812489892
  O        30.9652636181       20.9534464389       10.4081854954
  O        32.9469109526       20.6008894558        9.3382848211
  O        29.5619255172       17.0771762272        9.5719980122
  O        30.9068541879       20.8836268397        5.5938196663
  O        32.8831347962       20.5832567590        6.6702177250
  O        31.6855719255       18.2504475169        6.0000832705
  O        28.2875990007       18.6790912056        8.0731438669
  O        32.4884179865       14.2142151079        9.3294514923
  O        32.4005830065       14.2133822919        6.8236478665
  O        29.8780168666       14.5044437815        5.4135994168
  O        28.0406043743       14.5860239145        6.7460533901
  O        17.8892355599        1.9667021191       10.6627975285
  O        18.9562969411        3.5271762763        9.4079603948
  O        39.1686874683       34.1388618203        7.9971513800
  O        43.2802246345       33.0589548154       10.3317018332
  O        42.0345415973       31.5064512737        9.2416060633
  O        20.3177553790        1.0368125150        9.4800772970
  O        43.2760896621       33.1825859620        5.5748996091
  O        42.0052917612       31.5840893290        6.5829664806
  O        40.5789739388       33.7749709066        5.9357966329
  O        22.3673843960        1.3847861925        7.9979513384
  O        36.6727219389       35.0998516882        9.2332386545
  O        16.4455571327        0.0642641423        6.6682498852
  O        17.9364859136        2.0434040147        5.3263969032
  O        18.9191182026        3.5931371046        6.6659632286
  O        29.8161700457       18.8229827610        4.1521397869
  O        29.8623508921       18.9263634322       11.9971504960
  O        31.2148470862       16.4078905396        4.1542060288
  O        31.2672218321       16.4801919958       12.0658323154
  O        31.6958958929       16.7767949259        1.5805394891
  O        30.1262638452       15.9761253721       14.4018451836
  O        30.4149470103       19.1247697749        1.5894893695
  O        28.8897667753       18.3913451901       14.3559580637
  O        39.4567100639       35.2438257822        4.0020021708
  O        19.1412539369        0.0046755768       11.9905544625
  O        41.9694427422       35.1724724801        4.0871426046
  O        21.6912781754       -0.0693626470       11.8958807009
  O        51.3651015797       18.6143099081        4.0054482224
  O        10.7511631281       18.7471293236       11.9049156873
  O        50.0796095278       16.4128079151        4.0918064012
  O         9.5245226981       16.4830783967       11.9912325221
 Zr         9.2967264617       16.0528045735        6.1824087523
 Zr        49.8363479112       16.0068045208        9.7465254358
 Zr        22.0731712570        0.0298443005        6.1890430225
 Zr        42.4608739521       35.1534079493        9.8009924750
 Zr        29.6138566040       19.0788325504        6.2846827359
 Zr        29.5826213122       19.1824474727        9.8466577676
 Zr        11.0379118442       19.0520198305        9.8277531380
 Zr        11.0436972899       19.1548663161        6.2511712247
 Zr        31.3292624323       16.1075245100        9.8771337649
 Zr        31.3800573334       16.0153274625        6.2888030882
 Zr        18.6011283676       -0.0012476996        9.7632763458
 Zr        18.5064358454       -0.0077924329        6.2137275278
 Zr        12.3020524244       16.3235958464        7.9903303493
 Zr        48.6159418184       18.8329397855        8.0103798380
 Zr        20.3154100969        2.4735686843        7.9906883766
 Zr        40.6434464503       32.6870088792        7.9781181188
 Zr        28.3394603800       16.3396395108        8.0797214820
 Zr        32.6308575996       18.8388446519        8.0537361157
