     560
 i =      345, E =     -4677.7431138349
  C        11.8585284300       14.0533859027        5.7415755878
  C        12.4558713305       12.8903227466        5.0233798827
  C        11.7042674385       12.1717400973        4.0813760390
  C        12.2805197552       11.1094428052        3.3890606208
  C        13.6209614656       10.7392689611        3.6170254429
  C        14.3540355595       11.4425026395        4.5908285493
  C        13.7812592040       12.5075402440        5.2823225461
  C        14.2604530639        9.6486180422        2.8435757560
  C        14.2555564767        9.6564352346        1.4218668525
  C        13.7423856763       10.7585283679        0.6679210488
  C        49.1266025222       21.2333998801        5.8797266933
  C        48.5497422765       22.4012450493        5.1527128632
  C        49.2997217367       23.0684636489        4.1715927252
  C        48.7327731508       24.1075808446        3.4384035157
  C        47.4022281804       24.5092201191        3.6670262324
  C        46.6713487819       23.8604658056        4.6806788073
  C        47.2337857315       22.8155465688        5.4100233926
  C        46.7720271118       25.5869115038        2.8697462610
  C        46.7610523041       25.5572472811        1.4479946319
  C        47.2609464237       24.4421389566        0.7044992188
  C        14.8593812738        8.5700521695        0.7085619478
  C        14.8912989313        8.5966713772        3.5201889042
  C        49.1129110478       21.2034822820       10.1452753428
  C        48.5274961474       22.3647653079       10.8724058188
  C        49.2666253865       23.0252726231       11.8655417706
  C        48.6902966321       24.0598234300       12.5969913576
  C        47.3599424996       24.4567418530       12.3586125754
  C        46.6396685353       23.8120850363       11.3348132675
  C        47.2132189862       22.7761829536       10.6030184715
  C        46.7214760301       25.5316769239       13.1496398536
  C        46.7332823651       25.5280450281       14.5713422643
  C        47.2486572811       24.4288092443       15.3277367115
  C        40.6175621161       17.0806326577       15.3166706450
  C        40.6364311877       17.1306661605       12.5061212442
  C        11.8828252848       14.0863717125       10.2854836542
  C        12.4718252145       12.9103729632       10.9895712549
  C        11.7142415973       12.1775655516       11.9159563377
  C        12.2805589175       11.0949893337       12.5843849039
  C        13.6191687807       10.7206603613       12.3522839956
  C        14.3570605113       11.4355688766       11.3909135792
  C        13.7918960461       12.5168526803       10.7181918254
  C        14.2525882485        9.6238544472       13.1227346130
  C        14.2514371717        9.6439302350       14.5445777530
  C        13.7416809301       10.7529230144       15.2916633696
  C        22.5067237687        3.2430513370        5.7484451640
  C        23.2104705032        4.3464393450        5.0367227803
  C        24.2099435902        4.0641220262        4.0939909315
  C        24.8313561080        5.1015919963        3.4041765571
  C        24.4677621527        6.4427455711        3.6367163737
  C        23.4930270178        6.7167115346        4.6133332415
  C        22.8679473988        5.6812149448        5.3025247405
  C        25.0763954344        7.5476791546        2.8625516141
  C        25.0702869773        7.5362115470        1.4413477794
  C        24.3798434390        6.5334415595        0.6896753886
  C        38.3006740177       31.9271487866        5.8479376994
  C        37.5655897354       30.8391563777        5.1379198231
  C        36.6010553722       31.1479276811        4.1659862182
  C        35.9739404871       30.1321830011        3.4490282713
  C        36.2952752938       28.7800575173        3.6802931562
  C        37.2315739335       28.4786673777        4.6878053893
  C        37.8625316819       29.4933871612        5.4042832889
  C        35.6813915427       27.6924072949        2.8826612569
  C        35.7076004628       27.7087552452        1.4603948151
  C        36.4132705741       28.7102711572        0.7219064366
  C        25.7019681870        8.6052747760        0.7276611660
  C        25.6584601357        8.6270151335        3.5385086336
  C        38.3256365903       31.9606502627       10.1561101089
  C        37.5966911557       30.8887473922       10.8957922889
  C        36.6616805450       31.2010210325       11.8950241935
  C        36.0415674967       30.1858957621       12.6215384951
  C        36.3411407726       28.8309443798       12.3742306922
  C        37.2542039170       28.5286077165       11.3449701268
  C        37.8761346540       29.5404509733       10.6191639514
  C        35.7240181292       27.7348978663       13.1586121067
  C        35.7291372496       27.7304903393       14.5814309090
  C        36.4228755732       28.7211787281       15.3450024805
  C        46.1352499830       26.6206671403       15.2814795763
  C        46.0875462976       26.5800501191       12.4735749671
  C        22.4657742332        3.2544281498       10.2524127079
  C        23.1729425549        4.3604480143       10.9647128678
  C        24.1851374509        4.0693292071       11.8930499482
  C        24.8243166966        5.0965722506       12.5824433076
  C        24.4703485367        6.4430841745       12.3660306898
  C        23.4827143063        6.7276667649       11.4044850184
  C        22.8393984601        5.7007241123       10.7147726485
  C        25.1034640553        7.5372233845       13.1428464753
  C        25.0848850612        7.5300825007       14.5648415197
  C        24.3842527296        6.5322864858       15.3132906392
  C        26.5630554106       17.8297569770        5.7860945371
  C        25.2626153169       17.8937982560        5.0606065086
  C        25.0103533506       18.9089545922        4.1246387071
  C        23.8024319021       18.9409300464        3.4320984817
  C        22.8146043252       17.9611079509        3.6549469110
  C        23.0620193585       16.9693797041        4.6225882994
  C        24.2710126906       16.9323191968        5.3135908218
  C        21.5487038902       17.9567271880        2.8832223772
  C        21.5572024455       17.9522141571        1.4612421761
  C        22.7674424017       17.8438245931        0.7059428035
  C        34.4215075248       17.2180968163        5.9173570953
  C        35.7142246366       17.1499582073        5.1772767075
  C        35.9010463261       16.1860757218        4.1738753295
  C        37.0832737890       16.1560525663        3.4390275537
  C        38.1092062461       17.0904662867        3.6828906077
  C        37.9231499024       18.0345396780        4.7116253577
  C        36.7402592765       18.0685951784        5.4466062532
  C        39.3630176209       17.0896854198        2.8935763448
  C        39.3587898372       17.0963896653        1.4707068939
  C        38.1518663362       17.2098427625        0.7110052812
  C        20.3132395018       17.9697821434        0.7491260509
  C        20.3229482963       17.9471397843        3.5616654838
  C        34.4486662145       17.1874623060       10.1772205508
  C        35.7522358949       17.1138901626       10.8976369585
  C        35.9877822481       16.1117067581       11.8518487872
  C        37.1731760723       16.1001654312       12.5821125563
  C        38.1568400755       17.0865160044       12.3744992096
  C        37.9303931850       18.0623490729       11.3854923136
  C        36.7411812512       18.0816698803       10.6610762672
  C        39.4052378373       17.1056030186       13.1707724119
  C        39.3806121731       17.1022464087       14.5923000086
  C        38.1619548214       17.2079660946       15.3339802523
  C        35.0952142249       26.6531323623       15.2860888672
  C        35.1331705834       26.6635369042       12.4763874032
  C        26.5626510179       17.8264873878       10.3237474803
  C        25.2504697597       17.8803305788       11.0261998867
  C        24.9719903882       18.9155347516       11.9315841722
  C        23.7546200751       18.9470746631       12.6050479112
  C        22.7872355854       17.9455116337       12.3931001038
  C        23.0584283350       16.9349847272       11.4531097077
  C        24.2770745868       16.8998494676       10.7791867902
  C        21.5227353809       17.9367641989       13.1636917380
  C        21.5432049247       17.9412773166       14.5846392971
  C        22.7607618115       17.8389464665       15.3295105587
  C        14.0452314928       17.8320502459       10.2840646409
  C        15.3514248202       17.8973403546       11.0015947163
  C        15.6103766829       18.9134124230       11.9342634800
  C        16.8206333906       18.9413445703       12.6233032061
  C        17.8030270400       17.9558700020       12.4005886987
  C        17.5498081425       16.9648458902       11.4340254527
  C        16.3391262795       16.9327164961       10.7460702181
  C        19.0691812566       17.9439632849       13.1709545782
  C        19.0620797768       17.9479832970       14.5925865712
  C        17.8514567595       17.8495574419       15.3481491728
  C        46.8032337500       17.2180811043       10.1589431404
  C        45.5118189953       17.1532283957       10.9039436369
  C        45.3045084696       16.1699239407       11.8839426057
  C        44.1218831383       16.1467170511       12.6188750834
  C        43.1152572210       17.1070759132       12.3972090223
  C        43.3200730383       18.0704994048       11.3907356356
  C        44.5033006291       18.0972029096       10.6562125633
  C        41.8607307772       17.1114520289       13.1854608666
  C        41.8647672519       17.1001948393       14.6079431966
  C        43.0730434237       17.1924148298       15.3681285997
  C        20.3058473225       17.9635777549       15.3049358468
  C        20.2943795862       17.9180145596       12.4923099609
  C        46.7823607377       17.2304216707        5.8881635792
  C        45.4776490619       17.1202018478        5.1728471868
  C        45.2587494118       16.1159743536        4.2171916320
  C        44.0694953858       16.0819000179        3.4924231164
  C        43.0674492548       17.0489176714        3.7049946701
  C        43.2768751209       18.0232643640        4.6991533156
  C        44.4673288456       18.0635956582        5.4191991472
  C        41.8194920961       17.0639713433        2.9077682325
  C        41.8436635606       17.0750424747        1.4862600178
  C        43.0628397751       17.1780350435        0.7449629253
  C        46.1529816773       26.6370794492        0.7262330466
  C        46.1620392711       26.6560201734        3.5358524710
  C        14.0405180803       17.8296626345        5.7066810297
  C        15.3550307413       17.9024454695        5.0074214612
  C        15.6234565956       18.9274713792        4.0882350913
  C        16.8475706992       18.9688300661        3.4258130384
  C        17.8280939844       17.9840846953        3.6580633197
  C        17.5652171224       16.9848384861        4.6123214918
  C        16.3432662518       16.9432571427        5.2787595357
  C        19.0942880410       17.9701919613        2.8901475273
  C        19.0753884195       17.9609488761        1.4691050613
  C        17.8580318589       17.8552204275        0.7243693334
  C        28.8021537311       14.0838033531       10.3543610214
  C        28.2069858491       12.9061334587       11.0434158288
  C        28.9371544909       12.1875520025       12.0016398610
  C        28.3495939548       11.1106871944       12.6610370182
  C        27.0199072403       10.7312235058       12.3870163239
  C        26.3130858228       11.4315526612       11.3925244313
  C        26.8971807758       12.5078695701       10.7310908431
  C        26.3563980198        9.6492799200       13.1495879955
  C        26.3330128537        9.6756756815       14.5705130436
  C        26.8301662180       10.7887624214       15.3199547333
  C        32.1739671713       21.2393981535       10.1101157374
  C        32.7546423314       22.4048783096       10.8382261938
  C        32.0028164852       23.0636517090       11.8240701441
  C        32.5641026822       24.1041438606       12.5593713443
  C        33.8923361958       24.5154327155       12.3319846901
  C        34.6258265979       23.8727582942       11.3157851941
  C        34.0684457808       22.8271146043       10.5823312824
  C        34.5145695094       25.5943561117       13.1353892984
  C        34.5035063879       25.5684960881       14.5579582698
  C        33.9963910738       24.4539438937       15.2977449590
  C        25.7153049216        8.5981400881       15.2835658570
  C        25.7244708760        8.5983423523       12.4717579464
  C        32.0808630450       21.1969893439        5.8498673274
  C        32.6589532242       22.3626839413        5.1181687977
  C        31.9291123407       23.0070653310        4.1069336221
  C        32.5009442338       24.0507117826        3.3824190638
  C        33.8184841815       24.4771461229        3.6438292922
  C        34.5292557289       23.8457125885        4.6833028975
  C        33.9613374976       22.8005081543        5.4072679372
  C        34.4576090354       25.5607989339        2.8601122130
  C        34.4745773591       25.5516279917        1.4371284182
  C        33.9819457522       24.4461091022        0.6746075984
  C        40.6061600580       17.0723425028        0.7621135985
  C        40.5879557886       17.0892017822        3.5721225084
  C        28.6634220229       14.0649669193        5.8186282814
  C        28.0625924680       12.9182055634        5.0798212165
  C        28.8190987971       12.2053258458        4.1366577215
  C        28.2476804189       11.1501771023        3.4309164541
  C        26.9054730753       10.7799819205        3.6463350233
  C        26.1657514219       11.4776752379        4.6194571671
  C        26.7347970971       12.5352175290        5.3258250409
  C        26.2781977630        9.6874401327        2.8664371067
  C        26.2945578296        9.6953788088        1.4451681565
  C        26.8097649790       10.7992089353        0.6957724824
  C        18.1353385920        3.1808793764       10.3171220894
  C        17.4057016586        4.2780015190       11.0156563182
  C        16.3897904315        3.9994111407       11.9428923673
  C        15.7418227708        5.0392219731       12.6064252726
  C        16.0936548183        6.3829947162       12.3669883525
  C        17.0831683521        6.6527706380       11.4034355447
  C        17.7325078244        5.6155862140       10.7383531592
  C        15.4691260596        7.4905736350       13.1300571214
  C        15.4844108791        7.4899026046       14.5517730539
  C        16.1860875877        6.4963701914       15.3049295608
  C        42.9456825437       31.8594577350       10.0728307643
  C        43.6460317179       30.7717067712       10.8167530876
  C        44.5915727795       31.0930466442       11.8027959006
  C        45.1972778861       30.0875075740       12.5504739963
  C        44.8708297521       28.7344551376       12.3356051226
  C        43.9449142373       28.4200931576       11.3224813377
  C        43.3361060252       29.4252396614       10.5744271367
  C        45.4883270446       27.6551561535       13.1388607029
  C        45.4925210028       27.6807817921       14.5605586423
  C        44.8055053395       28.6888992493       15.3071587942
  C        14.8554872518        8.5624357030       15.2641220662
  C        14.8737728904        8.5622826308       12.4514684514
  C        42.9463474405       31.9615845220        5.8089895477
  C        43.6915122299       30.8853949782        5.0954656470
  C        44.6562444240       31.1912823421        4.1233089890
  C        45.2777263425       30.1716912701        3.4055488230
  C        44.9537335731       28.8214138988        3.6430487265
  C        44.0201079289       28.5237378103        4.6536801468
  C        43.3919042157       29.5405214069        5.3658876673
  C        45.5627580656       27.7240102540        2.8577933668
  C        45.5331210264       27.7173139777        1.4364960420
  C        44.8267260058       28.7074973523        0.6835544336
  C        35.0824657554       26.6433389451        0.7321228418
  C        35.0727167023       26.6184419172        3.5426767215
  C        18.1485154147        3.2467938004        5.7065955897
  C        17.4298118855        4.3436147790        4.9972676002
  C        16.4145507573        4.0522622093        4.0737935502
  C        15.7660999431        5.0828549867        3.3984590161
  C        16.1207719873        6.4281138991        3.6210141093
  C        17.1123266316        6.7115555026        4.5780729937
  C        17.7601201258        5.6826951709        5.2578177520
  C        15.4901410239        7.5237620351        2.8485756802
  C        15.4957653081        7.5070271088        1.4274305694
  C        16.1924844572        6.5052877012        0.6807420930
  H        10.6722329008       12.4660938801        3.9041749018
  H        11.6942376790       10.5511687981        2.6623572139
  H        15.3909386702       11.1675819039        4.7728139956
  H        14.3506376504       13.0703906782        6.0181101696
  H        13.3755168686       11.6307314635        1.2011924893
  H        50.3224261491       22.7484253777        3.9868396978
  H        49.3191968342       24.6227732262        2.6807314708
  H        45.6418602965       24.1612531142        4.8638475110
  H        46.6627960391       22.2903933514        6.1721994803
  H        47.6294662506       23.5757560496        1.2461841896
  H        14.8718062774        8.5879708012        4.6084992726
  H        50.2866041867       22.7022828314       12.0605769994
  H        49.2686169030       24.5751364925       13.3606449670
  H        45.6103471809       24.1095151849       11.1455808866
  H        46.6524775871       22.2542460532        9.8312383785
  H        47.6074049966       23.5516612769       14.7968687939
  H        40.6428706669       17.1095894573       11.4179714099
  H        48.6870332536       14.0950626402        7.7999995823
  H        10.6809662429       12.4671304336       12.0936685423
  H        11.6887441599       10.5249790793       13.2973672215
  H        15.3923005631       11.1571752696       11.2046717699
  H        14.3642620699       13.0857685040        9.9893256062
  H        13.3749085145       11.6215657270       14.7530394112
  H        47.9301262627       14.2182774008        9.7108597577
  H        47.7799489918       14.3738341730        6.4952868103
  H        49.0828669637       18.5522152072       10.8671155087
  H        10.4158037682       14.1343266398        7.9987568878
  H        24.4785083875        3.0256004766        3.9138246095
  H        25.6087874550        4.8834761000        2.6751931286
  H        23.2044951689        7.7494856851        4.7974259261
  H        22.0948196491        5.8822852573        6.0400438094
  H        23.8143271921        5.7763993034        1.2251318751
  H        36.3664948376       32.1923819366        3.9745385520
  H        35.2256424918       30.3778951084        2.6986649070
  H        37.4892262599       27.4382031113        4.8748587826
  H        38.6095404041       29.2657910380        6.1611769859
  H        36.9793732119       29.4599053735        1.2671197536
  H        25.6760066192        8.6145082162        4.6267741836
  H        36.4410575384       32.2461500307       12.1001478885
  H        35.3115442122       30.4360635017       13.3882117445
  H        37.4990518162       27.4873561855       11.1457962397
  H        38.6026368468       29.3095601993        9.8437728467
  H        36.9972617588       29.4788402075       14.8197989531
  H        46.1089359824       26.5874574214       11.3855348157
  H        44.6682460855       35.1161713663        7.8141214937
  H        24.4601786248        3.0297828863       12.0562007761
  H        25.6114960376        4.8652783837       13.2968956393
  H        23.1992388070        7.7634800331       11.2292820314
  H        22.0604077718        5.9163288579        9.9871284031
  H        23.8215152818        5.7747749047       14.7756313259
  H        44.9536099374       34.3898991925        9.6947487261
  H        44.9019207122       34.2068580683        6.4907102719
  H        40.6650569057       33.2083663687       10.8527591804
  H        23.1502193449        1.9578264387        8.0030776619
  H        25.7696733793       19.6690767914        3.9558468842
  H        23.6089107713       19.7326506441        2.7115667615
  H        22.3081825815       16.2052777265        4.8007662167
  H        24.4763115667       16.1538762114        6.0446723625
  H        23.7078487191       17.7310614966        1.2376229556
  H        35.1007698326       15.4766780870        3.9754166619
  H        37.2257570010       15.3997184456        2.6703453722
  H        38.7053571435       18.7657319797        4.9048557678
  H        36.5825888264       18.8136006755        6.2231067322
  H        37.2104510208       17.3308391615        1.2392539680
  H        20.3257975730       17.9733458674        4.6498865285
  H        35.2280007246       15.3514923844       12.0178860913
  H        37.3509807277       15.3216181388       13.3207978152
  H        38.6832634048       18.8300799578       11.2191123132
  H        36.5458917674       18.8534747442        9.9201967383
  H        37.2280595147       17.3242860474       14.7913472832
  H        35.1093986530       26.6878476921       11.3885088523
  H        28.5070412977       21.0933516481        7.8956571506
  H        25.7195935364       19.6891785278       12.0902887466
  H        23.5382081579       19.7511497900       13.3050956889
  H        22.3179668107       16.1555229762       11.2858447444
  H        24.5044832797       16.1078313024       10.0696820553
  H        23.6959659732       17.7227954243       14.7896037884
  H        28.9700691088       21.7300236024        9.7055828527
  H        29.1580582723       21.7319272358        6.5234461644
  H        32.1743507746       18.6468427682       10.9056171331
  H        27.3502627578       19.0688119617        8.0872146930
  H        14.8524010693       19.6747823719       12.1039545739
  H        17.0201363833       19.7335722302       13.3416897823
  H        18.2999937860       16.1973679631       11.2548521290
  H        16.1289680577       16.1551188825       10.0156240200
  H        16.9112687065       17.7351464912       14.8166331765
  H        46.0872989195       15.4365957770       12.0630735188
  H        43.9630458934       15.3755698548       13.3695049357
  H        42.5522135291       18.8209205603       11.2142643429
  H        44.6760363167       18.8554321533        9.8959569728
  H        44.0151767739       17.3081299346       14.8399671515
  H        20.2919163161       17.9365687565       11.4039464163
  H        46.0365822093       15.3759171561        4.0432307822
  H        43.9046581186       15.3019145700        2.7522068356
  H        42.5095763746       18.7752912816        4.8710388293
  H        44.6480914688       18.8352948301        6.1635244804
  H        43.9973566799       17.2813907880        1.2888045237
  H        46.1988929667       26.6825915818        4.6232949641
  H        52.7411498297       21.0626679947        8.1946026268
  H        14.8634664337       19.6853321050        3.9116627477
  H        17.0579998898       19.7669610945        2.7171671867
  H        18.3151479193       16.2182095819        4.7959381844
  H        16.1232450702       16.1612335832        6.0014317406
  H        16.9227653622       17.7453649515        1.2650759139
  H        52.3222957810       21.6735925698        6.2947330933
  H        52.0134171239       21.7025049872        9.4955109768
  H        49.0669901666       18.6075174777        5.2042426373
  H        13.2471681792       19.0166242174        7.9761040416
  H        29.9577499152       12.4947092945       12.2198566354
  H        28.9157838605       10.5523910454       13.4033936472
  H        25.2856455649       11.1477596184       11.1743583716
  H        26.3482971619       13.0705731527        9.9800257239
  H        27.2009910988       11.6571147198       14.7835863319
  H        30.9837374432       22.7333571885       12.0116728921
  H        31.9743543704       24.6125357021       13.3190022046
  H        35.6540184146       24.1783979265       11.1331949445
  H        34.6432722321       22.3085118728        9.8184663172
  H        33.6439235267       23.5821556529       14.7539838896
  H        25.7602802570        8.5801579432       11.3839215025
  H        30.9192108042       22.6655223901        3.8910644802
  H        31.9261095294       24.5500976937        2.6055959313
  H        35.5493264787       24.1610749592        4.8927097625
  H        34.5187115708       22.2926314633        6.1908031267
  H        33.6186510360       23.5679958221        1.2008563536
  H        40.5814643679       17.0561275974        4.6599695177
  H        32.5237517077       14.1352181319        8.1757542871
  H        29.8574041288       12.4862810751        3.9763981302
  H        28.8400549347       10.5943238839        2.7074065492
  H        25.1273168394       11.2020578222        4.7913559956
  H        26.1611612558       13.0909325925        6.0638679087
  H        27.1639335010       11.6755882960        1.2307958186
  H        33.2875624059       14.2185837760        6.3434115241
  H        33.4097310467       14.3640031433        9.5411086551
  H        32.1571757254       18.5565642918        5.1649573385
  H        30.1808659659       14.1416634277        8.0668656498
  H        16.1178749464        2.9628361718       12.1291164037
  H        14.9522678708        4.8196339329       13.3219054066
  H        17.3655755481        7.6857002441       11.2105787009
  H        18.5147064712        5.8184302302       10.0107240919
  H        16.7526133372        5.7390296503       14.7713958370
  H        44.8278975284       32.1401314307       11.9769147290
  H        45.9371993009       30.3412522193       13.3063706513
  H        43.6821823967       27.3780257626       11.1523947600
  H        42.5994632913       29.1899325124        9.8097709004
  H        44.2301725156       29.4366764418       14.7688383409
  H        14.8500325471        8.5454693875       11.3632489570
  H        44.8999045168       32.2339611712        3.9319946712
  H        46.0247286956       30.4129156183        2.6524052250
  H        43.7629884298       27.4840172343        4.8450770544
  H        42.6452859107       29.3177472602        6.1242220448
  H        44.2683011646       29.4704467114        1.2181395964
  H        35.0325427399       26.6306028393        4.6302795303
  H        36.6051934496       35.1339408384        8.1807068266
  H        16.1434406704        3.0126644357        3.9042196828
  H        14.9736835958        4.8559220047        2.6885040255
  H        17.3959068041        7.7470305448        4.7547924276
  H        18.5430311274        5.8932152714        5.9825302436
  H        16.7640400790        5.7551203455        1.2191544004
  H        36.2787482790       34.4820682938        6.2733425755
  H        36.3810057792       34.2090943688        9.4997549700
  H        40.5796199792       33.2021753224        5.1539091954
  H        17.4709436191        1.9470830281        7.9739820490
  H        28.6778359016       19.0047173864       12.3541535358
  H        28.7230755083       18.8833119358        3.6872181321
  H        30.7573223757       15.3044988379        3.8068443828
  H        32.4487501520       16.1640461033       12.3503907352
  H        18.8537408201        0.8689481297       12.3353320032
  H        40.5282791941       35.2289432888        3.9521285153
  H        42.3237733871       34.4188705956        3.5903053750
  H        22.0874781934        0.6921447653       12.3516270895
  H        11.5966710998       18.7128972195       12.3825562809
  H        52.2647093772       18.4312865235        3.6774706160
  H        49.2551780425       16.4763951482        3.5841421576
  H        10.1503081193       15.7982848358       12.2926412841
  H        50.8498653809       17.6926446193        3.9540245900
  H        10.0460541334       17.3946968466       12.0519536023
  H        20.2150724871        0.0020765730       12.0419513461
  H        39.1837234039       36.1243589893        3.6864518608
 Ni        30.6920082801       17.6159046274        3.3271600154
 Ni        30.8617310449       18.0151568286       14.7444649051
 Ni        30.5661658998       17.3520459617        0.9166034705
 Ni        30.5207102620       17.5263820463       12.5772146000
  O        10.6498014036       14.3652345034        5.4857886744
  O        12.6129885307       14.6574720081        6.5838569735
  O        49.1474947161       16.8459885800        7.9897661671
  O        50.3501180050       20.9362354459        5.6482906489
  O        48.3484375253       20.5932350114        6.6658884483
  O        11.0510569918       17.0540187240        6.5006677184
  O        50.3206801590       20.8816546528       10.4068678887
  O        48.3466018633       20.5866124801        9.3270623623
  O        49.5434499470       18.2481383716       10.0683596138
  O        12.3588682571       18.6246137297        7.9996307471
  O        48.6931551465       14.1486425684        6.7512790712
  O         8.2098304934       14.2105058561        9.3225252411
  O        10.7352847230       14.5068485370       10.6642741104
  O        12.5717618799       14.5826358657        9.3285005537
  O        22.8443394193        2.0422314362        5.4873060675
  O        21.6048665967        3.5917921610        6.5895456277
  O        42.0579343257       34.1370283721        7.9790986815
  O        37.9813058685       33.1360360596        5.5721150083
  O        39.2171499445       31.5748216572        6.6652666364
  O        20.3082438835        1.0393960056        6.5019992285
  O        38.0243552778       33.1851849327       10.4153495724
  O        39.2177311469       31.5825117105        9.3277042665
  O        40.6520214496       33.7690941138       10.0601568105
  O        18.2557095403        1.3760606490        7.9970406155
  O        44.6222274702       35.1005459508        6.7588386802
  O        24.2054642548       -0.0001068916        9.3207860348
  O        22.7532276406        2.0564882359       10.5829482471
  O        21.6244983507        3.5956836047        9.3423396526
  O        27.4627125377       18.6945319888        5.4851400458
  O        26.6928181751       16.9204439249        6.6692587653
  O        30.6312560106       19.3499493830        8.0101888596
  O        33.5446588818       16.3311512480        5.6617421365
  O        34.2665834694       18.1844571046        6.7445987383
  O        29.5587026517       17.0576306798        6.5785330679
  O        33.5854769145       16.2663627164       10.4135661457
  O        34.2644078720       18.1807406418        9.4035282254
  O        31.6435483076       18.3124536942       10.1621153582
  O        30.2911525273       15.1063316420        8.0727948084
  O        28.5503732719       21.0320724047        6.8249288674
  O        28.5105237940       20.9595917956        9.3297763014
  O        27.4549506836       18.6798985429       10.6566111399
  O        26.6911073338       16.9298342629        9.4158761535
  O        13.1465604733       18.6938178571       10.5862138431
  O        13.9181452001       16.9160439102        9.4041017297
  O        50.5956667248       19.3502121493        8.0205561234
  O        47.6824369747       16.3272567656       10.4175387778
  O        46.9507887104       18.1756634728        9.3253475157
  O        11.0690937346       17.0158245097        9.4895747636
  O        47.6744895775       16.3359529511        5.6526811793
  O        46.9244276759       18.2358320285        6.6628462181
  O        49.5686692224       18.3177684458        5.9822509041
  O        10.3186380627       15.1001981131        7.9970405163
  O        52.6707298042       21.0280665625        9.2418046286
  O        12.1467865271       20.8913743257        6.6733045400
  O        13.1047619540       18.6143435188        5.3262281581
  O        13.9559298847       16.9866517120        6.6648955646
  O        29.9923798485       14.4347109543       10.6593904980
  O        28.0669885054       14.6622356708        9.4825602852
  O        32.0723696103       16.8525012999        8.0719611607
  O        30.9527194058       20.9495706331       10.3356348432
  O        32.9541398472       20.5883725509        9.3273069045
  O        29.5688540305       17.0720540524        9.5754302408
  O        30.8627463834       20.8808040262        5.5950345234
  O        32.8611600004       20.5822556224        6.6583342044
  O        31.6149601106       18.2430777002        5.9105475287
  O        28.2368286315       18.6733372463        8.0678852637
  O        32.4943985742       14.2056331143        9.2468323448
  O        32.4032653628       14.2089158208        6.7470057751
  O        29.8388291238       14.4400671651        5.4870303382
  O        27.9610286113       14.5883152421        6.7519478878
  O        17.8891688610        1.9665193981       10.6626753353
  O        18.9561580445        3.5271666620        9.4080112022
  O        39.1684619563       34.1385430548        7.9972155443
  O        43.2801560450       33.0588050589       10.3316558843
  O        42.0342746859       31.5064112213        9.2416090185
  O        20.3174547793        1.0363642242        9.4801986645
  O        43.2761289627       33.1824826277        5.5748607265
  O        42.0052347545       31.5839975697        6.5830220416
  O        40.5789897275       33.7749245219        5.9360039362
  O        22.3672603681        1.3843663203        7.9978086924
  O        36.6727937790       35.0997449689        9.2333201836
  O        16.4456049918        0.0640973748        6.6682273802
  O        17.9364059786        2.0431795111        5.3264059166
  O        18.9188989832        3.5931435655        6.6658872959
  O        29.6394749687       18.9922266362        4.0037545267
  O        29.6088962142       19.0602005656       12.0661838775
  O        31.3453553009       16.0404802414        4.0683634081
  O        31.5227374684       16.0456306675       12.0722097400
  O        39.4568679989       35.2437268420        4.0019854980
  O        19.1415556183        0.0044754072       11.9905269642
  O        41.9694532144       35.1725977480        4.0871922040
  O        21.6912775605       -0.0694301774       11.8960508678
  O        51.3647742059       18.6143780465        4.0052457584
  O        10.7508817860       18.7472108658       11.9050138507
  O        50.0794643184       16.4127036383        4.0917235681
  O         9.5244138757       16.4831153160       11.9910961307
 Zr         9.2966845170       16.0529414447        6.1822519477
 Zr        49.8362826675       16.0068302551        9.7465710168
 Zr        22.0732133379        0.0296662412        6.1892237535
 Zr        42.4608493012       35.1534170551        9.8010792928
 Zr        29.5550000505       19.0918336324        6.2396265357
 Zr        29.5556845980       19.1894124006        9.8287436257
 Zr        11.0374067857       19.0523481530        9.8277308116
 Zr        11.0433524623       19.1551614597        6.2511446256
 Zr        31.3415252154       16.0440556569        9.8574978216
 Zr        31.3677720321       15.9881376741        6.2803443624
 Zr        18.6012326979       -0.0015725917        9.7636156221
 Zr        18.5065298643       -0.0080485154        6.2135958596
 Zr        12.3012469296       16.3232741391        7.9904363552
 Zr        48.6159224085       18.8330145509        8.0099229692
 Zr        20.3151056472        2.4733088859        7.9907674858
 Zr        40.6428151446       32.6867726466        7.9782276277
 Zr        28.3223018833       16.3361620868        8.0778864575
 Zr        32.6031620760       18.8279958515        8.0331869646
