     560
 i =      220, E =     -4677.7212080039
  C        11.8585233991       14.0534030526        5.7415582200
  C        12.4558842479       12.8903933369        5.0233015292
  C        11.7042527060       12.1717728469        4.0813500250
  C        12.2805125376       11.1094789828        3.3890496828
  C        13.6209658478       10.7393263204        3.6169730316
  C        14.3540316177       11.4425526387        4.5907837976
  C        13.7812598420       12.5075919335        5.2822837393
  C        14.2604164513        9.6486205967        2.8435757122
  C        14.2555006168        9.6564252763        1.4218681445
  C        13.7423822505       10.7585499460        0.6679308730
  C        49.1265604632       21.2334012783        5.8797238160
  C        48.5497276328       22.4012787969        5.1527420960
  C        49.2997102766       23.0685038958        4.1716296399
  C        48.7327514924       24.1075820677        3.4383910093
  C        47.4022336898       24.5092759260        3.6670790893
  C        46.6713277342       23.8604891160        4.6806906791
  C        47.2337927304       22.8156192728        5.4100782775
  C        46.7719899378       25.5869089262        2.8697519635
  C        46.7610047116       25.5572499286        1.4479962721
  C        47.2608944694       24.4421235247        0.7045265172
  C        14.8593618272        8.5700451915        0.7085917538
  C        14.8912404945        8.5966762390        3.5202064916
  C        49.1128503637       21.2034220848       10.1453263136
  C        48.5274336201       22.3646789779       10.8724901602
  C        49.2665614812       23.0252056493       11.8656147539
  C        48.6902329202       24.0597568221       12.5970556050
  C        47.3599003833       24.4567086260       12.3586374274
  C        46.6396294463       23.8120404288       11.3348536128
  C        47.2131825196       22.7761446388       10.6030674576
  C        46.7214648611       25.5316646240       13.1496521250
  C        46.7332006931       25.5279977134       14.5713528769
  C        47.2485964847       24.4287870823       15.3277658602
  C        40.6177724050       17.0767437745       15.3162843400
  C        40.6365738877       17.1295681028       12.5058117175
  C        11.8828044750       14.0863291112       10.2854579694
  C        12.4717704457       12.9102815102       10.9894845260
  C        11.7142233261       12.1775722183       11.9159743632
  C        12.2805214926       11.0949726337       12.5843896849
  C        13.6191295904       10.7206203698       12.3522695831
  C        14.3570456590       11.4355677240       11.3909381744
  C        13.7918958901       12.5168711505       10.7182344317
  C        14.2525784637        9.6238446406       13.1227455317
  C        14.2513712572        9.6439062613       14.5445892802
  C        13.7416756712       10.7529289612       15.2916738985
  C        22.5062109518        3.2429074756        5.7485565699
  C        23.2090456593        4.3465132197        5.0367429917
  C        24.2084503181        4.0647813676        4.0938348904
  C        24.8286300965        5.1027043239        3.4037335276
  C        24.4635304132        6.4434313763        3.6362075591
  C        23.4890082867        6.7168589243        4.6131088898
  C        22.8652859107        5.6809258635        5.3026693643
  C        25.0704517044        7.5486645340        2.8615955237
  C        25.0652708378        7.5360477111        1.4404897813
  C        24.3763025520        6.5320334805        0.6890860378
  C        38.3003773923       31.9271760907        5.8483432974
  C        37.5646017661       30.8391459235        5.1391378775
  C        36.5998120279       31.1478584775        4.1674491380
  C        35.9721387811       30.1320147366        3.4511563638
  C        36.2932886678       28.7799079150        3.6827591081
  C        37.2295255427       28.4785778639        4.6903187645
  C        37.8610105749       29.4934071575        5.4061831364
  C        35.6793377054       27.6923422916        2.8850953313
  C        35.7067357660       27.7085944501        1.4628459426
  C        36.4133594593       28.7098357517        0.7248748153
  C        25.6966310294        8.6051237799        0.7266167220
  C        25.6505285297        8.6291924060        3.5371945702
  C        38.3261476309       31.9606082621       10.1566137993
  C        37.5983996581       30.8885395626       10.8972955677
  C        36.6641479384       31.2004438420       11.8973498667
  C        36.0450595757       30.1850522628       12.6244115940
  C        36.3447836603       28.8301660296       12.3768154909
  C        37.2573655206       28.5282751837       11.3469773393
  C        37.8783486712       29.5403276863       10.6206947485
  C        35.7279242304       27.7337800546       13.1609297261
  C        35.7315197613       27.7296692255       14.5837585156
  C        36.4243497041       28.7204937800       15.3479854461
  C        46.1352208093       26.6206537250       15.2814780512
  C        46.0875069099       26.5800145357       12.4735940196
  C        22.4654917294        3.2537544398       10.2519554963
  C        23.1726799959        4.3591927298       10.9641770443
  C        24.1846889695        4.0671414315       11.8923259116
  C        24.8238923073        5.0939034633       12.5821091996
  C        24.4697933720        6.4402723722       12.3657922513
  C        23.4827222663        6.7258329445       11.4040870554
  C        22.8393210799        5.6993784936       10.7140456765
  C        25.1027536399        7.5339799577       13.1425200381
  C        25.0826880859        7.5276221897       14.5643307085
  C        24.3818945765        6.5299003440       15.3127240737
  C        26.5563400143       17.8253449854        5.7898772731
  C        25.2572402779       17.8868166319        5.0622517904
  C        25.0046143815       18.9029249065        4.1275274177
  C        23.7975339622       18.9342538843        3.4338012650
  C        22.8109838301       17.9528611310        3.6546855228
  C        23.0587534716       16.9597865759        4.6207727822
  C        24.2671534258       16.9233444132        5.3128636876
  C        21.5456865400       17.9494521534        2.8824235520
  C        21.5548094246       17.9480198194        1.4605293431
  C        22.7654446171       17.8415603904        0.7055803561
  C        34.4192402414       17.2155543016        5.9129707599
  C        35.7129992280       17.1467131689        5.1744485343
  C        35.9032422090       16.1792021455        4.1751877293
  C        37.0859355856       16.1491953831        3.4411428296
  C        38.1093061090       17.0871443485        3.6819943663
  C        37.9203803924       18.0346153823        4.7069434400
  C        36.7368437402       18.0686789489        5.4409118212
  C        39.3633632628       17.0864717613        2.8931071020
  C        39.3590514813       17.0919338959        1.4702866193
  C        38.1519403064       17.2034168090        0.7105872920
  C        20.3111356198       17.9674595867        0.7480690942
  C        20.3198808446       17.9394942300        3.5604529784
  C        34.4500403464       17.1855973236       10.1744983279
  C        35.7529460638       17.1137261493       10.8964140893
  C        35.9899403350       16.1091672992       11.8477395773
  C        37.1748895370       16.0974516447       12.5785795888
  C        38.1571013931       17.0857880207       12.3740415690
  C        37.9291357261       18.0646256618       11.3884121430
  C        36.7400087568       18.0843053100       10.6637260914
  C        39.4054440443       17.1037061729       13.1704468810
  C        39.3807914219       17.0980290393       14.5919178208
  C        38.1619307115       17.2018407980       15.3335793410
  C        35.0966836094       26.6525466072       15.2879782943
  C        35.1381716690       26.6620132750       12.4783168649
  C        26.5623311168       17.8278737038       10.3261005678
  C        25.2495901723       17.8829687796       11.0275475913
  C        24.9706873262       18.9198013936       11.9308671929
  C        23.7530326148       18.9520296232       12.6038747865
  C        22.7864070793       17.9495094991       12.3931890773
  C        23.0580754097       16.9373532904       11.4552439282
  C        24.2768991120       16.9015699760       10.7818546593
  C        21.5218406386       17.9404479977       13.1633678565
  C        21.5418802579       17.9428388161       14.5841857407
  C        22.7592862614       17.8396037523       15.3291554688
  C        14.0451268285       17.8324404693       10.2836195116
  C        15.3513607904       17.8984927886       11.0006093135
  C        15.6099043129       18.9151081723       11.9327652311
  C        16.8201717336       18.9437437785       12.6216302776
  C        17.8026949577       17.9584329663       12.3990932163
  C        17.5500805819       16.9671165953       11.4327331350
  C        16.3393570399       16.9342535897       10.7449894908
  C        19.0685319360       17.9467571679       13.1696947970
  C        19.0607680363       17.9492384062       14.5912345474
  C        17.8498160469       17.8498068703       15.3461046775
  C        46.8033009153       17.2180287748       10.1588875932
  C        45.5118601924       17.1528109858       10.9037471331
  C        45.3046165059       16.1689793822       11.8832123784
  C        44.1219778178       16.1452930136       12.6180575996
  C        43.1153591485       17.1057490447       12.3968877789
  C        43.3200935513       18.0697165601       11.3909313589
  C        44.5033247829       18.0968631798       10.6564397807
  C        41.8608779713       17.1094451667       13.1851119736
  C        41.8649676093       17.0970712230       14.6075666634
  C        43.0732247041       17.1896014489       15.3677627527
  C        20.3042591833       17.9637865263       15.3039899082
  C        20.2938758948       17.9221432808       12.4914461973
  C        46.7823800673       17.2305789329        5.8880179142
  C        45.4776599630       17.1200992256        5.1727568651
  C        45.2591582191       16.1158472841        4.2170505602
  C        44.0699600462       16.0813744769        3.4922496736
  C        43.0676134059       17.0480948731        3.7047615716
  C        43.2767706489       18.0226748482        4.6987529661
  C        44.4671682724       18.0633411603        5.4189026269
  C        41.8197338591       17.0624713129        2.9074347786
  C        41.8438904093       17.0725083412        1.4859050428
  C        43.0630734243       17.1755893512        0.7445862535
  C        46.1530072804       26.6371228690        0.7262313909
  C        46.1620783721       26.6560564095        3.5358658024
  C        14.0399314886       17.8291045442        5.7065570554
  C        15.3538086411       17.9006171529        5.0065868573
  C        15.6223915965       18.9252259906        4.0870660679
  C        16.8461361459       18.9653208820        3.4240804913
  C        17.8256784660       17.9796340967        3.6562194170
  C        17.5626060718       16.9807142521        4.6106840329
  C        16.3411054072       16.9404669995        5.2777741770
  C        19.0916246000       17.9649015880        2.8884937753
  C        19.0730489893       17.9578637496        1.4675247119
  C        17.8558721093       17.8537013733        0.7223016317
  C        28.8023618760       14.0784727680       10.3547322527
  C        28.2070030039       12.9006904524       11.0432567294
  C        28.9388696614       12.1784222535       11.9973355449
  C        28.3506799135       11.1022533163       12.6572395760
  C        27.0193373535       10.7268002618       12.3862842265
  C        26.3109501369       11.4300184446       11.3951878844
  C        26.8954191539       12.5061925270       10.7340469533
  C        26.3553903813        9.6454627470       13.1488227904
  C        26.3302633135        9.6733032706       14.5694508454
  C        26.8259144558       10.7875611412       15.3180097739
  C        32.1761103531       21.2419590305       10.1059414191
  C        32.7595543180       22.4059051369       10.8352085681
  C        32.0074522769       23.0644547776       11.8209574014
  C        32.5688998008       24.1035796903       12.5580094876
  C        33.8977298800       24.5139155641       12.3324274405
  C        34.6319157681       23.8708956406       11.3169575201
  C        34.0742087580       22.8264253919       10.5817496848
  C        34.5191942174       25.5927116656       13.1367847845
  C        34.5060256069       25.5676045573       14.5593810912
  C        33.9971349108       24.4537021440       15.2989949619
  C        25.7118856259        8.5964613548       15.2827320518
  C        25.7241145923        8.5944509130       12.4710288592
  C        32.0752924025       21.1950128564        5.8475972632
  C        32.6540534370       22.3622151438        5.1173031504
  C        31.9235049264       23.0106651141        4.1092078236
  C        32.4959737182       24.0543619827        3.3851700945
  C        33.8148765116       24.4776553154        3.6447604602
  C        34.5261896632       23.8431001100        4.6818183649
  C        33.9575941086       22.7975415556        5.4048543350
  C        34.4547645630       25.5613384614        2.8616140680
  C        34.4728728230       25.5520606076        1.4386677415
  C        33.9802792136       24.4467068776        0.6758501065
  C        40.6063830701       17.0685450802        0.7617130876
  C        40.5881664114       17.0875869756        3.5717912800
  C        28.6586635709       14.0619829669        5.8194828099
  C        28.0543615826       12.9193852458        5.0774910022
  C        28.8093043048       12.2087474167        4.1315238488
  C        28.2372299772       11.1541934168        3.4258691317
  C        26.8958189135       10.7829063843        3.6438872263
  C        26.1570643022       11.4794498697        4.6185058377
  C        26.7270410134       12.5362462732        5.3252351738
  C        26.2693138858        9.6898100941        2.8647629725
  C        26.2870311105        9.6965657276        1.4435957415
  C        26.8024878909       10.7999371156        0.6937086759
  C        18.1353193575        3.1808779132       10.3171678276
  C        17.4055992883        4.2779903334       11.0156280698
  C        16.3897585993        3.9993794468       11.9429277851
  C        15.7418039567        5.0391908177       12.6064750362
  C        16.0935772039        6.3829712048       12.3669829265
  C        17.0831189578        6.6527518219       11.4034597204
  C        17.7324340090        5.6155703450       10.7383572150
  C        15.4690681991        7.4905375503       13.1300909117
  C        15.4843817692        7.4899111003       14.5518097494
  C        16.1860182180        6.4963384843       15.3049584255
  C        42.9456631701       31.8594226508       10.0728285667
  C        43.6460431995       30.7716818322       10.8167309875
  C        44.5916166029       31.0930137210       11.8027484631
  C        45.1972842789       30.0874723554       12.5504480296
  C        44.8708021198       28.7344290522       12.3356108023
  C        43.9449077470       28.4200819409       11.3224732381
  C        43.3361246432       29.4252190902       10.5743962312
  C        45.4883165617       27.6551420312       13.1388592622
  C        45.4925186020       27.6807808320       14.5605518707
  C        44.8054860369       28.6888848611       15.3071465961
  C        14.8554032016        8.5624151528       15.2641540584
  C        14.8737459748        8.5622594747       12.4514845733
  C        42.9463582193       31.9615831527        5.8089939133
  C        43.6915336909       30.8854059246        5.0954790207
  C        44.6562103608       31.1913227362        4.1232807694
  C        45.2777201079       30.1717389516        3.4055315314
  C        44.9537711817       28.8214486543        3.6430374888
  C        44.0201536042       28.5237648055        4.6536771772
  C        43.3919168222       29.5405344791        5.3658741400
  C        45.5627982348       27.7240398871        2.8577940049
  C        45.5330702014       27.7173099054        1.4365012168
  C        44.8267811427       28.7075533875        0.6835381718
  C        35.0820801655       26.6432553012        0.7340361066
  C        35.0698647976       26.6185887431        3.5447420607
  C        18.1484725825        3.2467961040        5.7065949962
  C        17.4298111504        4.3435942775        4.9971950732
  C        16.4144683775        4.0522527156        4.0738074675
  C        15.7660078917        5.0828294063        3.3984577281
  C        16.1206721629        6.4280828560        3.6210423844
  C        17.1122314782        6.7115511349        4.5780856297
  C        17.7600127075        5.6826850818        5.2578282931
  C        15.4900253909        7.5237220382        2.8486158563
  C        15.4956850050        7.5069923374        1.4274729473
  C        16.1924016383        6.5052613407        0.6807725017
  H        10.6722267588       12.4661434152        3.9041397468
  H        11.6942437807       10.5512063678        2.6623375237
  H        15.3909409081       11.1676486170        4.7727477461
  H        14.3506560805       13.0704665087        6.0180437878
  H        13.3755338515       11.6307705192        1.2011929454
  H        50.3224070910       22.7484524530        3.9868611857
  H        49.3191873017       24.6228022007        2.6807448940
  H        45.6418655687       24.1613310142        4.8639185114
  H        46.6628122714       22.2904606160        6.1722553319
  H        47.6294011406       23.5757361298        1.2462161583
  H        14.8717324746        8.5879736058        4.6085174827
  H        50.2865366206       22.7022231812       12.0606601009
  H        49.2685542012       24.5751117175       13.3606786543
  H        45.6103390714       24.1095275619       11.1455634128
  H        46.6524660151       22.2542193729        9.8312666617
  H        47.6073262794       23.5516250713       14.7969114051
  H        40.6429760894       17.1101016232       11.4176353733
  H        48.6870559582       14.0950725475        7.8000137180
  H        10.6809249592       12.4671009259       12.0936338721
  H        11.6886930533       10.5249522175       13.2973570248
  H        15.3922909457       11.1571728040       11.2047044193
  H        14.3642563468       13.0857635839        9.9893462676
  H        13.3749145796       11.6215767702       14.7530484294
  H        47.9301184517       14.2182543183        9.7108269773
  H        47.7799231124       14.3738092861        6.4953331130
  H        49.0828414876       18.5522200998       10.8671660056
  H        10.4158704182       14.1343224514        7.9988190816
  H        24.4778544242        3.0264516472        3.9138667565
  H        25.6061189090        4.8853994559        2.6745750175
  H        23.1996366228        7.7494323575        4.7969892023
  H        22.0922758936        5.8812130609        6.0405031310
  H        23.8109181116        5.7750007816        1.2246936303
  H        36.3656315197       32.1923220935        3.9756033429
  H        35.2238149792       30.3776561596        2.7007988133
  H        37.4868731773       27.4381009821        4.8777108230
  H        38.6081217228       29.2658972924        6.1630001174
  H        36.9790128831       29.4595012907        1.2704959240
  H        25.6676365941        8.6174187903        4.6254688704
  H        36.4431529484       32.2454813741       12.1025730571
  H        35.3154385010       30.4349953261       13.3915278503
  H        37.5025133035       27.4871419318       11.1475905300
  H        38.6043402962       29.3096885498        9.8447552865
  H        36.9994224140       29.4779652878       14.8232702603
  H        46.1089287287       26.5874301425       11.3855595565
  H        44.6682503083       35.1161977804        7.8141520953
  H        24.4592283771        3.0273969914       12.0549548114
  H        25.6109146689        4.8625534093       13.2967082301
  H        23.1998206438        7.7618674456       11.2293325880
  H        22.0604804757        5.9150366668        9.9862757771
  H        23.8201096525        5.7717022654       14.7750437943
  H        44.9537168735       34.3899430412        9.6947042390
  H        44.9019775936       34.2068768558        6.4907233217
  H        40.6650691385       33.2083159142       10.8527501852
  H        23.1501292530        1.9577239502        8.0029628388
  H        25.7625180538       19.6649346387        3.9610866721
  H        23.6033023245       19.7268162490        2.7143957669
  H        22.3056236810       16.1945411015        4.7970515161
  H        24.4731862841       16.1443260598        6.0431626478
  H        23.7056118577       17.7279773895        1.2375257827
  H        35.1055514493       15.4661921027        3.9795372004
  H        37.2309407159       15.3902423464        2.6755023658
  H        38.7008032876       18.7682860083        4.8980013411
  H        36.5769805735       18.8162623904        6.2144575451
  H        37.2104356263       17.3230004601        1.2390231682
  H        20.3223489702       17.9639309560        4.6487072959
  H        35.2318776378       15.3466789313       12.0108514615
  H        37.3537946546       15.3168661220       13.3148434765
  H        38.6808083878       18.8340968825       11.2246959897
  H        36.5436327065       18.8581858728        9.9252998227
  H        37.2279091111       17.3173201744       14.7909271836
  H        35.1155690916       26.6860982327       11.3904148204
  H        28.5063167085       21.0995615735        7.8882643340
  H        25.7185285064       19.6935484614       12.0880597244
  H        23.5357776268       19.7570898073       13.3025408021
  H        22.3178350210       16.1574044258       11.2892813397
  H        24.5049979064       16.1086094777       10.0736286271
  H        23.6946089077       17.7249624162       14.7891074436
  H        28.9601074632       21.7327436799        9.7135203397
  H        29.1724419508       21.7166117307        6.5171233850
  H        32.2258462071       18.6728445870       10.8531720624
  H        27.3467133694       19.0698859518        8.0792832040
  H        14.8515561350       19.6761515616       12.1022128270
  H        17.0195130939       19.7361345697       13.3398816543
  H        18.3006652349       16.1999839195       11.2537858963
  H        16.1293332735       16.1564350491       10.0147440483
  H        16.9098512978       17.7362502201       14.8140295173
  H        46.0874851256       15.4356467853       12.0619549767
  H        43.9631617512       15.3737370771       13.3682656843
  H        42.5522016907       18.8202028331       11.2149067897
  H        44.6760549341       18.8555089530        9.8965931663
  H        44.0153177327       17.3055022979       14.8395809055
  H        20.2918225647       17.9417190588       11.4031053343
  H        46.0371909342       15.3759637498        4.0432383510
  H        43.9053496987       15.3012534797        2.7521289167
  H        42.5092669538       18.7745161341        4.8705565687
  H        44.6476727791       18.8350949912        6.1632427049
  H        43.9975473955       17.2796059295        1.2883730796
  H        46.1989121668       26.6826563404        4.6233103795
  H        52.7411635342       21.0626723809        8.1946008588
  H        14.8628997981       19.6836518489        3.9108218125
  H        17.0571823891       19.7630942155        2.7152298816
  H        18.3120249812       16.2135072713        4.7939413112
  H        16.1205394235       16.1589060840        6.0007565387
  H        16.9204207541       17.7432965975        1.2625785454
  H        52.3223034279       21.6736310988        6.2947730602
  H        52.0134923929       21.7025879435        9.4954614961
  H        49.0669813272       18.6075903864        5.2042197635
  H        13.2471258795       19.0166111952        7.9759528438
  H        29.9612607254       12.4823393029       12.2116453890
  H        28.9173519619       10.5412020158       13.3971662536
  H        25.2822904433       11.1486050732       11.1797373233
  H        26.3456328913       13.0717380144        9.9858046642
  H        27.1976425617       11.6550091937       14.7807515731
  H        30.9877141373       22.7348051296       12.0062006781
  H        31.9786481878       24.6122901126       13.3170377978
  H        35.6606656558       24.1755935513       11.1359116533
  H        34.6494470474       22.3077611716        9.8182121551
  H        33.6452248664       23.5819292118       14.7548567032
  H        25.7607685798        8.5755722049       11.3832434715
  H        30.9118014709       22.6728851779        3.8960055146
  H        31.9206588213       24.5566634728        2.6105626834
  H        35.5471217801       24.1564016059        4.8901566925
  H        34.5154629390       22.2872464448        6.1864365991
  H        33.6154371886       23.5693837066        1.2023516497
  H        40.5815573637       17.0557024120        4.6596787052
  H        32.5447074602       14.0991226296        8.1817387355
  H        29.8472299559       12.4904286896        3.9701041583
  H        28.8285008960       10.5990101737        2.7009525220
  H        25.1190820256       11.2030206739        4.7918695246
  H        26.1549709794       13.0907342234        6.0654337473
  H        27.1546941970       11.6773104260        1.2283885530
  H        33.2842182033       14.2229455417        6.3338830851
  H        33.4394481358       14.3295582198        9.5327656870
  H        32.1160924087       18.5363206315        5.1415015293
  H        30.1890770139       14.1320224769        8.0624781999
  H        16.1178471796        2.9628091604       12.1291769492
  H        14.9522747948        4.8196109594       13.3219889408
  H        17.3655384502        7.6856783511       11.2105977239
  H        18.5146212927        5.8184021778       10.0107179725
  H        16.7525721217        5.7390099597       14.7714321454
  H        44.8279171297       32.1400991547       11.9768873317
  H        45.9371829029       30.3412250692       13.3063591314
  H        43.6821479943       27.3780199941       11.1524265328
  H        42.5994528220       29.1899123231        9.8097739285
  H        44.2301778170       29.4366716067       14.7688202544
  H        14.8500071105        8.5454634028       11.3632632653
  H        44.8998664290       32.2340034972        3.9319715104
  H        46.0247123849       30.4129650052        2.6523772981
  H        43.7630449612       27.4840455879        4.8450963423
  H        42.6453271398       29.3177706777        6.1242431669
  H        44.2683301485       29.4704835205        1.2181230584
  H        35.0290702012       26.6306185367        4.6323256922
  H        36.6052146785       35.1339079385        8.1806906981
  H        16.1433949257        3.0126527715        3.9041988605
  H        14.9735549358        4.8559112812        2.6885371924
  H        17.3957715103        7.7470324334        4.7548442759
  H        18.5429455288        5.8931996637        5.9825118775
  H        16.7639401024        5.7550922331        1.2191953081
  H        36.2788076706       34.4820338859        6.2733246099
  H        36.3809813048       34.2090838802        9.4997451898
  H        40.5796269604       33.2022473728        5.1539257488
  H        17.4707972634        1.9470442184        7.9739751974
  H        28.7342875137       19.0140710854       12.3102556636
  H        28.6699768108       18.8605222336        3.8021959087
  H        30.6703144333       15.3395529085        3.8498317437
  H        32.4576764960       16.1216564209       12.2554708297
  H        18.8537691721        0.8689971134       12.3352626506
  H        40.5282823282       35.2289796142        3.9521358009
  H        42.3237990455       34.4189629974        3.5902775550
  H        22.0873994463        0.6921366989       12.3516415923
  H        11.5966299042       18.7128842877       12.3825933639
  H        52.2646987367       18.4313253886        3.6774789475
  H        49.2552357452       16.4763044664        3.5840335176
  H        10.1503528156       15.7982846686       12.2926048759
  H        50.8498843538       17.6926661138        3.9540083839
  H        10.0460476966       17.3947363087       12.0519258676
  H        20.2151042479        0.0020510331       12.0419361394
  H        39.1837028849       36.1243138497        3.6863927087
 Ni        30.5250525387       17.5726759254        3.0793856521
 Ni        30.9017683706       18.2379134780       14.7423995341
 Ni        30.5662902165       17.2054634053        0.8310858597
 Ni        30.6913161412       17.6673023438       12.5815363894
  O        10.6497795910       14.3652285409        5.4857952541
  O        12.6130675439       14.6574285196        6.5838133225
  O        49.1476021753       16.8459570447        7.9896701923
  O        50.3500852894       20.9362990742        5.6482536928
  O        48.3484557408       20.5932441999        6.6659559922
  O        11.0508872298       17.0540660033        6.5006591111
  O        50.3206532964       20.8816961583       10.4068717167
  O        48.3465822747       20.5866387602        9.3270034588
  O        49.5433743886       18.2483975037       10.0682875719
  O        12.3587996526       18.6246735505        7.9996708486
  O        48.6931581763       14.1486651476        6.7512765602
  O         8.2098379828       14.2104440416        9.3225406745
  O        10.7352848147       14.5067925210       10.6643504925
  O        12.5717285971       14.5827301579        9.3285469483
  O        22.8441821317        2.0421854726        5.4874691062
  O        21.6045684289        3.5917465691        6.5898145038
  O        42.0579158397       34.1370438833        7.9790446443
  O        37.9812930151       33.1360402316        5.5721401612
  O        39.2171696148       31.5748473788        6.6653022519
  O        20.3083309717        1.0395303878        6.5018993054
  O        38.0241876677       33.1850530962       10.4155218008
  O        39.2178569797       31.5826309143        9.3277224625
  O        40.6521647931       33.7690773810       10.0601690897
  O        18.2556532069        1.3761230976        7.9967632354
  O        44.6222128715       35.1005431390        6.7588490655
  O        24.2055320847       -0.0000839825        9.3207506013
  O        22.7529801576        2.0559315992       10.5826776120
  O        21.6243171849        3.5953967908        9.3419959820
  O        27.4546408435       18.6926458107        5.4901881869
  O        26.6892431371       16.9180871630        6.6728817753
  O        30.6356877458       19.3496082702        8.0066151690
  O        33.5411158655       16.3303437138        5.6574623178
  O        34.2672930301       18.1815019520        6.7424754555
  O        29.5308252145       17.0179436071        6.5779230042
  O        33.5880141787       16.2638238911       10.4092880091
  O        34.2642660707       18.1808929516        9.4026721325
  O        31.6456813908       18.3123290499       10.1603039937
  O        30.2920312185       15.0975169299        8.0733745763
  O        28.5508240367       21.0302972029        6.8218835969
  O        28.5088769503       20.9623830588        9.3280798629
  O        27.4556682702       18.6792397494       10.6581866561
  O        26.6891720435       16.9305937263        9.4180655115
  O        13.1463029405       18.6939146934       10.5861158353
  O        13.9179453196       16.9160218117        9.4041074789
  O        50.5956269989       19.3502666871        8.0205469465
  O        47.6825131828       16.3272246126       10.4174828381
  O        46.9505990804       18.1756855686        9.3253462371
  O        11.0689806538       17.0159033448        9.4895728659
  O        47.6743526491       16.3359167551        5.6527420155
  O        46.9244061792       18.2358228145        6.6629047341
  O        49.5685910338       18.3177720671        5.9822275079
  O        10.3186004629       15.1001837615        7.9971098956
  O        52.6706525431       21.0279908829        9.2417973737
  O        12.1467980438       20.8914048039        6.6733220180
  O        13.1046138634       18.6143929639        5.3263205042
  O        13.9555438791       16.9866253043        6.6652291362
  O        29.9915717327       14.4304273590       10.6572088334
  O        28.0643595171       14.6585009310        9.4851806935
  O        32.0746787319       16.8522006678        8.0655704542
  O        30.9561200372       20.9547080214       10.3307113192
  O        32.9562615622       20.5865014143        9.3255608647
  O        29.5707924550       17.0700232451        9.5750860309
  O        30.8581315679       20.8779358970        5.5924252596
  O        32.8584261860       20.5821845544        6.6564687423
  O        31.6078842456       18.2389045418        5.9145125943
  O        28.2320641823       18.6717373484        8.0671449988
  O        32.5261413069       14.1462347078        9.2479389004
  O        32.4024266412       14.2100996419        6.7426058751
  O        29.8355982749       14.4331435807        5.4893489721
  O        27.9589117689       14.5854992760        6.7537631479
  O        17.8891481463        1.9665346772       10.6628084353
  O        18.9561172397        3.5271395621        9.4080301259
  O        39.1684709400       34.1385208671        7.9971928993
  O        43.2801707626       33.0587556153       10.3316914618
  O        42.0342965104       31.5064058503        9.2415650719
  O        20.3173745849        1.0362882382        9.4802224849
  O        43.2760842253       33.1824981270        5.5748868844
  O        42.0052158427       31.5840893487        6.5830269512
  O        40.5790331309       33.7750600741        5.9359643189
  O        22.3671106196        1.3843522864        7.9979760387
  O        36.6727642083       35.0997323425        9.2333145140
  O        16.4456259255        0.0640836921        6.6682155052
  O        17.9363669928        2.0431772768        5.3263954829
  O        18.9188615827        3.5931579904        6.6658631403
  O        29.6073841413       18.9055384790        4.0737168938
  O        29.6497341048       19.1256509854       11.9884121904
  O        31.2193402350       16.1145918977        4.0845546683
  O        31.5191312308       16.0575388330       11.9997314320
  O        39.4568651589       35.2437276542        4.0020255194
  O        19.1415659538        0.0044984389       11.9905240149
  O        41.9694823740       35.1726998583        4.0871566011
  O        21.6912402467       -0.0694494969       11.8960559736
  O        51.3647591379       18.6143894298        4.0052538510
  O        10.7508684291       18.7472029860       11.9050204285
  O        50.0794514330       16.4127278828        4.0917332995
  O         9.5244177483       16.4831223749       11.9911684125
 Zr         9.2966759101       16.0528846036        6.1821919790
 Zr        49.8362837146       16.0068726522        9.7465812124
 Zr        22.0733019766        0.0296684636        6.1892426468
 Zr        42.4608829077       35.1533048914        9.8010467360
 Zr        29.5495707537       19.0679324268        6.2570000681
 Zr        29.5560697789       19.1963465152        9.8078002489
 Zr        11.0373491504       19.0524004532        9.8277586772
 Zr        11.0433587929       19.1551787163        6.2511304262
 Zr        31.3439299221       16.0306922064        9.8314213853
 Zr        31.3559186420       15.9860724639        6.2755551349
 Zr        18.6011576086       -0.0016115072        9.7636165870
 Zr        18.5065849598       -0.0080054451        6.2135709176
 Zr        12.3011174011       16.3232462721        7.9904753420
 Zr        48.6159270137       18.8329430753        8.0099743497
 Zr        20.3148906147        2.4732428240        7.9907351145
 Zr        40.6428600455       32.6867871255        7.9781943737
 Zr        28.3150943499       16.3258340404        8.0868688431
 Zr        32.6082610321       18.8278624696        8.0239809330
