     563
 i =      189, E =     -4541.8219741609
  C        11.8586387573       14.0534494648        5.7414745176
  C        12.4560187768       12.8904790424        5.0232042045
  C        11.7043523549       12.1717233480        4.0813864455
  C        12.2806124874       11.1094215139        3.3891058215
  C        13.6211037394       10.7393594604        3.6169572573
  C        14.3542647652       11.4427863543        4.5905478658
  C        13.7814738711       12.5078383132        5.2820231064
  C        14.2605012065        9.6486284190        2.8435538025
  C        14.2555514197        9.6564251638        1.4218495185
  C        13.7424398601       10.7585635879        0.6679318563
  C        49.1265044723       21.2335052580        5.8798294508
  C        48.5495998443       22.4013451947        5.1527964251
  C        49.2995500396       23.0685062389        4.1716220626
  C        48.7325756388       24.1075285104        3.4383198014
  C        47.4020899789       24.5092731134        3.6670804438
  C        46.6712179179       23.8605876079        4.6807831997
  C        47.2337193908       22.8157729015        5.4102227535
  C        46.7718744989       25.5868991573        2.8697265098
  C        46.7608872602       25.5572382936        1.4479672683
  C        47.2607855145       24.4421222970        0.7044828677
  C        14.8593611492        8.5700232209        0.7085665630
  C        14.8913716799        8.5967115871        3.5201765085
  C        49.1128558400       21.2034168072       10.1453524691
  C        48.5274790155       22.3647947637       10.8723997885
  C        49.2665888920       23.0252461043       11.8655837592
  C        48.6902917005       24.0598049593       12.5970467447
  C        47.3600043241       24.4568562048       12.3585473487
  C        46.6397589347       23.8122956520       11.3346747772
  C        47.2132935109       22.7763895554       10.6028842733
  C        46.7215366697       25.5317566338       13.1496143388
  C        46.7331944281       25.5280616432       14.5713179634
  C        47.2485635570       24.4288283764       15.3277204576
  C        40.6183647336       17.0693773253       15.3164898999
  C        40.6355548246       17.1131506472       12.5062842116
  C        11.8827906921       14.0862644737       10.2854160484
  C        12.4717904855       12.9103008085       10.9894973495
  C        11.7142412141       12.1774998363       11.9159059523
  C        12.2805841861       11.0949787661       12.5843918272
  C        13.6192147894       10.7207073574       12.3522959566
  C        14.3572264104       11.4358391707       11.3911855643
  C        13.7920041072       12.5170602208       10.7184165275
  C        14.2526463246        9.6239111542       13.1227481916
  C        14.2513969196        9.6439217952       14.5445876220
  C        13.7417164102       10.7529423576       15.2916797479
  C        22.5028564667        3.2425379863        5.7466776174
  C        23.1986868004        4.3460243619        5.0294791596
  C        24.1969380548        4.0650227738        4.0853399974
  C        24.8122508265        5.1034940482        3.3921625845
  C        24.4427640861        6.4431323027        3.6232690663
  C        23.4680672572        6.7158501271        4.5999718692
  C        22.8492376427        5.6794151813        5.2925695290
  C        25.0491422988        7.5489313929        2.8505001772
  C        25.0495682716        7.5364745138        1.4298253370
  C        24.3632583136        6.5326109793        0.6760288792
  C        38.2988165847       31.9265052682        5.8491007459
  C        37.5596990850       30.8373397785        5.1430926922
  C        36.5937766040       31.1442748661        4.1717951616
  C        35.9637533482       30.1272405696        3.4587666273
  C        36.2828682762       28.7748235860        3.6924335175
  C        37.2194903568       28.4753073255        4.7002884225
  C        37.8534282704       29.4913933135        5.4128998524
  C        35.6686251394       27.6870094856        2.8936745262
  C        35.7016514114       27.7032230543        1.4712155929
  C        36.4138725887       28.7026259769        0.7358618046
  C        25.6841307492        8.6053374598        0.7188431911
  C        25.6262223267        8.6289038782        3.5289661268
  C        38.3277497109       31.9603121107       10.1585340476
  C        37.6040580852       30.8879379647       10.9032020132
  C        36.6736472516       31.1994867688       11.9069465204
  C        36.0569319085       30.1839046180       12.6359536498
  C        36.3546710187       28.8288935463       12.3862548197
  C        37.2648605781       28.5274954641       11.3540828576
  C        37.8837964797       29.5397339305       10.6262739697
  C        35.7358854145       27.7319977074       13.1683777211
  C        35.7360423634       27.7263131131       14.5913452740
  C        36.4295135031       28.7141830633       15.3589547758
  C        46.1351882204       26.6207038994       15.2814445664
  C        46.0876282625       26.5801418981       12.4735590087
  C        22.4664206011        3.2533945976       10.2499637981
  C        23.1760263513        4.3591005162       10.9582358100
  C        24.1878086170        4.0676769170       11.8867162139
  C        24.8277262644        5.0952937971       12.5742391466
  C        24.4742698530        6.4413086586       12.3550192803
  C        23.4883295360        6.7262117164       11.3921545063
  C        22.8443019383        5.6989249112       10.7041973827
  C        25.1046724610        7.5350556219       13.1330046771
  C        25.0786720165        7.5283495053       14.5545576485
  C        24.3741981178        6.5307861319       15.2997815992
  C        26.5674816035       17.8191377023        5.7515518037
  C        25.2609949958       17.8788877598        5.0360829390
  C        25.0045020408       18.8900202083        4.0970800050
  C        23.7923432364       18.9208686289        3.4131588206
  C        22.8057884862       17.9424520610        3.6461588586
  C        23.0567090892       16.9553949991        4.6172453177
  C        24.2696539604       16.9208219957        5.3015095686
  C        21.5397930757       17.9358053818        2.8761672970
  C        21.5499519214       17.9309776336        1.4544370723
  C        22.7608753813       17.8177706138        0.7009128382
  C        34.4198562340       17.2098433326        5.9139476427
  C        35.7135255620       17.1441146980        5.1723837472
  C        35.9132703565       16.1654104375        4.1861560651
  C        37.0960625569       16.1368471266        3.4520130364
  C        38.1108294635       17.0868223112        3.6814265964
  C        37.9131849739       18.0456880835        4.6935557449
  C        36.7289839005       18.0783913970        5.4268219245
  C        39.3655700778       17.0856655475        2.8935008274
  C        39.3609167941       17.0876863817        1.4710444321
  C        38.1531568495       17.1971935951        0.7122213544
  C        20.3071218742       17.9551221585        0.7413461260
  C        20.3138794332       17.9289761557        3.5535102962
  C        34.4473213642       17.2428683861       10.1807987858
  C        35.7481045989       17.1431245955       10.9048798651
  C        35.9705480835       16.1367343694       11.8572969211
  C        37.1583101392       16.1065626429       12.5842146856
  C        38.1557710994       17.0790090136       12.3759291804
  C        37.9418215132       18.0581972132       11.3876686415
  C        36.7521271831       18.0949724445       10.6659036890
  C        39.4044831738       17.0888788860       13.1715168327
  C        39.3808858468       17.0881109526       14.5929102648
  C        38.1625990383       17.1943722054       15.3352691961
  C        35.0964343437       26.6503169690       15.2929554075
  C        35.1452594631       26.6621033253       12.4829534799
  C        26.5628004428       17.8258100747       10.3227801784
  C        25.2521135373       17.8766425031       11.0279537017
  C        24.9765253471       18.9064003226       11.9400364578
  C        23.7582441100       18.9377473089       12.6116034904
  C        22.7876011343       17.9414372229       12.3903708635
  C        23.0563989748       16.9360197066       11.4444529308
  C        24.2761839199       16.9009439512       10.7729413761
  C        21.5220490291       17.9323908538       13.1583848796
  C        21.5402661420       17.9298127594       14.5790861027
  C        22.7564005995       17.8179194311       15.3246551670
  C        14.0448523908       17.8328922525       10.2825675697
  C        15.3517036454       17.8998892597       10.9970775194
  C        15.6119010172       18.9179569139       11.9270668947
  C        16.8231726668       18.9467980749       12.6138787385
  C        17.8041058187       17.9600427858       12.3913879638
  C        17.5501254357       16.9677316986       11.4265644016
  C        16.3385893830       16.9347860355       10.7406818776
  C        19.0691639803       17.9456773687       13.1624123947
  C        19.0593549797       17.9450556257       14.5837117113
  C        17.8471733677       17.8476062886       15.3369151852
  C        46.8031286536       17.2175467545       10.1587255145
  C        45.5115135160       17.1503743363       10.9035393085
  C        45.3066587761       16.1664509658       11.8834362590
  C        44.1239767579       16.1398242522       12.6181169282
  C        43.1146739616       17.0971838551       12.3961318500
  C        43.3170064961       18.0612678595       11.3897919794
  C        44.5004639191       18.0915023689       10.6555873950
  C        41.8602851854       17.0983078459       13.1847363460
  C        41.8651870085       17.0902494133       14.6072213419
  C        43.0735558104       17.1871650460       15.3667135584
  C        20.3019777563       17.9537472112       15.2975099657
  C        20.2948497092       17.9197677881       12.4851380220
  C        46.7828657061       17.2306612105        5.8882328197
  C        45.4785416425       17.1208397103        5.1723804574
  C        45.2601256629       16.1165549615        4.2167775626
  C        44.0712204567       16.0826012531        3.4916055703
  C        43.0693715086       17.0498008701        3.7039861327
  C        43.2785210096       18.0246449607        4.6976237200
  C        44.4686486363       18.0647666516        5.4181146094
  C        41.8214873695       17.0635213569        2.9070993088
  C        41.8453653323       17.0712510174        1.4856011348
  C        43.0640744049       17.1754009190        0.7435972138
  C        46.1529228753       26.6371309940        0.7261999924
  C        46.1619824985       26.6560659759        3.5358264689
  C        14.0392518907       17.8282102384        5.7057411848
  C        15.3516308006       17.8974623675        5.0035266306
  C        15.6190447460       18.9200735447        4.0814714228
  C        16.8414995695       18.9580653279        3.4161567456
  C        17.8207603326       17.9722325980        3.6486719024
  C        17.5588753523       16.9753349782        4.6055938833
  C        16.3386895460       16.9371689100        5.2749623778
  C        19.0861791635       17.9555062882        2.8805713948
  C        19.0683739328       17.9487020838        1.4596262695
  C        17.8516649261       17.8489058029        0.7130816642
  C        28.8074331292       14.0839361373       10.3622532384
  C        28.2110601053       12.9056836179       11.0500457150
  C        28.9417136086       12.1803379083       12.0023021626
  C        28.3527586686       11.1027319835       12.6589384267
  C        27.0216551016       10.7288539603       12.3856619333
  C        26.3140099915       11.4351899015       11.3965969509
  C        26.8995036468       12.5129149871       10.7391028498
  C        26.3565371287        9.6463513031       13.1448211268
  C        26.3270032870        9.6736471032       14.5651879760
  C        26.8217734350       10.7869796786       15.3158724706
  C        32.1758170940       21.2402828347       10.1076327292
  C        32.7592713633       22.4054756028       10.8383737668
  C        32.0034579280       23.0768461772       11.8124145094
  C        32.5660373785       24.1162406885       12.5487891147
  C        33.8998884977       24.5155074078       12.3331195848
  C        34.6377755901       23.8613881213       11.3276884394
  C        34.0788257322       22.8160962144       10.5941375284
  C        34.5223028260       25.5935480540       13.1387659553
  C        34.5053017013       25.5676871473       14.5612771759
  C        33.9919715240       24.4540972826       15.2981090132
  C        25.7052484248        8.5969010643       15.2753690511
  C        25.7280838645        8.5957430797       12.4640531864
  C        32.0885908787       21.1637811161        5.8349668008
  C        32.6516944925       22.3383875915        5.1046010224
  C        31.9187445534       22.9853603526        4.0975745229
  C        32.4850835990       24.0374686908        3.3797263280
  C        33.8007385432       24.4696420548        3.6430340536
  C        34.5135634511       23.8362909813        4.6797965600
  C        33.9507228593       22.7844566950        5.3975697881
  C        34.4397509684       25.5574330553        2.8638505518
  C        34.4630582592       25.5492742645        1.4408361568
  C        33.9715466037       24.4454054423        0.6749138607
  C        40.6077520027       17.0642962162        0.7618508731
  C        40.5901740285       17.0893041556        3.5720617365
  C        28.6735728183       14.0329951599        5.8216167058
  C        28.0562822736       12.8962336728        5.0814059676
  C        28.8074705198       12.1767499648        4.1391664984
  C        28.2266089269       11.1304985908        3.4296225412
  C        26.8800948731       10.7756686905        3.6413834874
  C        26.1442044127       11.4801254859        4.6120927542
  C        26.7230591559       12.5302154550        5.3218598919
  C        26.2491818619        9.6881444928        2.8591696866
  C        26.2729417431        9.6957646080        1.4383650265
  C        26.7938747982       10.7986918303        0.6915103572
  C        18.1352101428        3.1808868810       10.3172084579
  C        17.4056356328        4.2779857228       11.0157689702
  C        16.3897036314        3.9994006111       11.9429762073
  C        15.7417239721        5.0392362969       12.6064461793
  C        16.0935870649        6.3830008094       12.3669833705
  C        17.0832356267        6.6527629750       11.4035698275
  C        17.7325784231        5.6155555286       10.7385391551
  C        15.4690581660        7.4905659351       13.1300618144
  C        15.4843492043        7.4899074906       14.5517743451
  C        16.1860344618        6.4963558109       15.3049010867
  C        42.9456173772       31.8595028594       10.0728298182
  C        43.6459969978       30.7717608185       10.8167615429
  C        44.5915449159       31.0931205186       11.8027913903
  C        45.1972558501       30.0875845893       12.5504676678
  C        44.8708367162       28.7345298733       12.3355989155
  C        43.9450113038       28.4201639581       11.3223998106
  C        43.3361826091       29.4252915457       10.5743451119
  C        45.4883796188       27.6552382340       13.1388206224
  C        45.4925090621       27.6808423573       14.5605120373
  C        44.8054679492       28.6889366147       15.3071137708
  C        14.8553902674        8.5624058756       15.2641347530
  C        14.8738090246        8.5623371448       12.4514712715
  C        42.9463343494       31.9616389418        5.8089769163
  C        43.6915301403       30.8854410821        5.0954639821
  C        44.6561767558       31.1913722201        4.1232361802
  C        45.2776298244       30.1717701195        3.4054662935
  C        44.9537271269       28.8214779291        3.6430079255
  C        44.0201725259       28.5238147801        4.6537113608
  C        43.3919633956       29.5405751298        5.3659474050
  C        45.5627161767       27.7240556729        2.8577560835
  C        45.5329954594       27.7173268959        1.4364644208
  C        44.8267365977       28.7075932196        0.6835054768
  C        35.0769828280       26.6398931122        0.7391862644
  C        35.0540149253       26.6138261940        3.5501228731
  C        18.1483919416        3.2468120788        5.7065192339
  C        17.4298221816        4.3435644310        4.9970383808
  C        16.4144666334        4.0522466695        4.0736640085
  C        15.7660107665        5.0828528862        3.3983736692
  C        16.1207552823        6.4280874356        3.6209515534
  C        17.1123287021        6.7115368906        4.5779820554
  C        17.7600954135        5.6826394403        5.2576789958
  C        15.4900972208        7.5237366951        2.8485698953
  C        15.4957163650        7.5069855895        1.4274320968
  C        16.1924448466        6.5052757527        0.6807136332
  H        10.6723035633       12.4660439899        3.9042329008
  H        11.6943245775       10.5510475789        2.6624869681
  H        15.3912419899       11.1680316294        4.7723607626
  H        14.3509721906       13.0708683002        6.0175880059
  H        13.3756801832       11.6308206594        1.2011945553
  H        50.3222107064       22.7483635993        3.9868045724
  H        49.3189950228       24.6226788116        2.6806133080
  H        45.6417907646       24.1615137019        4.8640691550
  H        46.6627870239       22.2906653410        6.1724711800
  H        47.6292847330       23.5757271240        1.2461662860
  H        14.8719592560        8.5880433408        4.6084896798
  H        50.2865389911       22.7021891247       12.0606549784
  H        49.2685967527       24.5750370188       13.3607662714
  H        45.6104944951       24.1098493163       11.1453441673
  H        46.6526222339       22.2545442767        9.8309953191
  H        47.6073433191       23.5516934947       14.7968545060
  H        40.6415113027       17.0906454369       11.4181597743
  H        48.6871492267       14.0951101619        7.8000684036
  H        10.6809449596       12.4670206330       12.0935704095
  H        11.6887703235       10.5248575389       13.2972841889
  H        15.3925303022       11.1575887672       11.2050749813
  H        14.3644494219       13.0861492968        9.9897482968
  H        13.3750521380       11.6216306259       14.7530567859
  H        47.9301259363       14.2184426237        9.7107655051
  H        47.7799914449       14.3741213608        6.4954756032
  H        49.0828268096       18.5522673138       10.8672074690
  H        10.4160760212       14.1343142852        7.9986750601
  H        24.4696218981        3.0271585875        3.9077695770
  H        25.5897750696        4.8879544406        2.6625452527
  H        23.1756821263        7.7479455957        4.7816871602
  H        22.0765254080        5.8780511218        6.0311165718
  H        23.7953483618        5.7759071522        1.2094435129
  H        36.3603342935       32.1884315452        3.9772191752
  H        35.2153390053       30.3725511353        2.7083599901
  H        37.4759609397       27.4351131039        4.8905657985
  H        38.6008704843       29.2641520627        6.1695065808
  H        36.9800792792       29.4502597062        1.2837062710
  H        25.6395109945        8.6166840294        4.6172677740
  H        36.4532933774       32.2444749504       12.1131779207
  H        35.3298404689       30.4339134409       13.4054450066
  H        37.5092549064       27.4864419833       11.1533360346
  H        38.6074161430       29.3091787946        9.8480902026
  H        37.0089319107       29.4701875025       14.8368197949
  H        46.1091032217       26.5876182464       11.3855254070
  H        44.6682396455       35.1162421492        7.8142315348
  H        24.4608710508        3.0279372424       12.0517537846
  H        25.6140246972        4.8651692528       13.2900094275
  H        23.2065397730        7.7622061891       11.2154067092
  H        22.0657579796        5.9134456658        9.9758081715
  H        23.8140948227        5.7731066570       14.7596715609
  H        44.9536005684       34.3897479338        9.6946187610
  H        44.9020509667       34.2068999207        6.4907814430
  H        40.6654806493       33.2083982603       10.8528084096
  H        23.1497874314        1.9579475390        8.0021001168
  H        25.7649129056       19.6469093604        3.9199064442
  H        23.5943397916       19.7092453754        2.6902214164
  H        22.3030891841       16.1928469011        4.8028957822
  H        24.4786836155       16.1464565433        6.0358176582
  H        23.6996594082       17.6968729191        1.2335594755
  H        35.1231935141       15.4406116083        4.0036247675
  H        37.2493183009       15.3695996434        2.6962289231
  H        38.6874264648       18.7881654776        4.8756372909
  H        36.5618734591       18.8336759395        6.1913140765
  H        37.2124429694       17.3169175238        1.2420345694
  H        20.3157387661       17.9556743375        4.6417171997
  H        35.1990691470       15.3884263431       12.0243622406
  H        37.3270588119       15.3239945621       13.3207938347
  H        38.7053620495       18.8151062810       11.2204476104
  H        36.5670175295       18.8690017960        9.9249552194
  H        37.2288783712       17.3103659753       14.7924666665
  H        35.1254263694       26.6873848309       11.3950156663
  H        28.5034206841       21.0834698115        7.7982778861
  H        25.7271217719       19.6759819314       12.1038678237
  H        23.5430393451       19.7375451386       13.3168721846
  H        22.3131222584       16.1606815804       11.2706872573
  H        24.5021207746       16.1134978703       10.0579623967
  H        23.6916623930       17.6980475767       14.7855993803
  H        28.9781419493       21.7254080448        9.6785852119
  H        29.2033109618       21.6920173182        6.4677636435
  H        32.1001704000       18.6329716983       10.8847882870
  H        27.3694743057       19.0322414381        8.0165097911
  H        14.8540484884       19.6794902199       12.0964710300
  H        17.0243397339       19.7396680362       13.3310792551
  H        18.3000877519       16.1999087797       11.2480465282
  H        16.1267604925       16.1563124096       10.0116924545
  H        16.9074905574       17.7378116280       14.8035892044
  H        46.0915422898       15.4354162321       12.0627136542
  H        43.9673121552       15.3683567627       13.3688732797
  H        42.5470207012       18.8094558139       11.2131098261
  H        44.6712344391       18.8503187087        9.8954464612
  H        44.0151192304       17.3041743470       14.8378230667
  H        20.2938540904       17.9425684137       11.3968603055
  H        46.0380124379       15.3764323482        4.0433620140
  H        43.9062875724       15.3024945608        2.7515477021
  H        42.5112253164       18.7767783101        4.8690353696
  H        44.6495748805       18.8365718672        6.1622844623
  H        43.9985963416       17.2821376928        1.2867963331
  H        46.1988528719       26.6826919599        4.6232691245
  H        52.7412348427       21.0626578902        8.1945881718
  H        14.8597080236       19.6786391388        3.9052126159
  H        17.0519757295       19.7544319210        2.7055636235
  H        18.3083614054       16.2082524199        4.7890734240
  H        16.1188727298       16.1572545424        5.9999300195
  H        16.9153300626       17.7400453972        1.2521686570
  H        52.3224358222       21.6737161597        6.2947428127
  H        52.0135912657       21.7027208869        9.4953755851
  H        49.0668782699       18.6077226111        5.2041586403
  H        13.2471105833       19.0164149168        7.9755945349
  H        29.9649571120       12.4813236473       12.2161543504
  H        28.9183467586       10.5388672377       13.3975418029
  H        25.2853097957       11.1548863477       11.1799284353
  H        26.3507820351       13.0811036485        9.9921701430
  H        27.1964304724       11.6543209517       14.7804420988
  H        30.9783758131       22.7585396836       11.9875187908
  H        31.9729413777       24.6343367590       13.2992710281
  H        35.6701286336       24.1578189215       11.1533788177
  H        34.6567552048       22.2883624229        9.8388645295
  H        33.6401020629       23.5839430685       14.7513106293
  H        25.7684064128        8.5777194953       11.3763869789
  H        30.9096994669       22.6419650735        3.8802755461
  H        31.9072311584       24.5391730743        2.6066059409
  H        35.5318889812       24.1555523632        4.8917794792
  H        34.5099494304       22.2762622214        6.1794971421
  H        33.6046419234       23.5676591564        1.1991187146
  H        40.5837394435       17.0601412251        4.6600263258
  H        32.5219795014       14.1369633280        8.2553933728
  H        29.8490225538       12.4470935910        3.9834650039
  H        28.8137636402       10.5687255270        2.7064857877
  H        25.1022266942       11.2155597915        4.7798938486
  H        26.1537015825       13.0923392848        6.0583567436
  H        27.1461432535       11.6750499982        1.2279411410
  H        33.2999351466       14.2063733282        6.4333779441
  H        33.4056678069       14.4018465632        9.6089441633
  H        32.0768235108       18.4274986079        5.0815920811
  H        30.1980851377       14.1345735361        8.0784671597
  H        16.1177533417        2.9628381189       12.1291982292
  H        14.9521444079        4.8197030297       13.3219153290
  H        17.3657698508        7.6856738894       11.2107889297
  H        18.5148919990        5.8183811134       10.0110351333
  H        16.7526371448        5.7390727942       14.7713661407
  H        44.8277843258       32.1402176045       11.9769527575
  H        45.9371138373       30.3413568825       13.3064143938
  H        43.6823262611       27.3780901912       11.1523070047
  H        42.5995714391       29.1899833308        9.8096630859
  H        44.2302015723       29.4367580929       14.7687909086
  H        14.8501556382        8.5456137468       11.3632483407
  H        44.8997991237       32.2340539343        3.9318880813
  H        46.0245676622       30.4129921677        2.6522588481
  H        43.7630963776       27.4840962089        4.8451771602
  H        42.6454122162       29.3178253886        6.1243575394
  H        44.2683220151       29.4705421276        1.2181012909
  H        35.0096740411       26.6248226476        4.6376076752
  H        36.6052821600       35.1338776617        8.1806295377
  H        16.1433473156        3.0126566327        3.9040787640
  H        14.9735444717        4.8559865200        2.6884554656
  H        17.3959305873        7.7470043158        4.7547267605
  H        18.5430167163        5.8931374718        5.9823818938
  H        16.7640747111        5.7551643544        1.2191220404
  H        36.2790623852       34.4818893052        6.2732325978
  H        36.3809738622       34.2090452101        9.4996644535
  H        40.5793722839       33.2023804920        5.1538850998
  H        17.4707043134        1.9472491928        7.9739693910
  H        28.7070627895       18.8927165831       12.1863242655
  H        28.7900166612       18.6315842678        3.7660155005
  H        30.6665627875       15.3176780791        3.8932288109
  H        32.3763421341       16.5125484194       12.1934787697
  H        29.4160785867       19.1291243263       14.5530713525
  H        18.8538022389        0.8690405881       12.3351348610
  H        40.5283839724       35.2290250198        3.9520996345
  H        42.3238978619       34.4190935793        3.5902128779
  H        22.0871998058        0.6923227650       12.3516094047
  H        11.5967151438       18.7127012875       12.3824961536
  H        52.2643318376       18.4315060960        3.6773166160
  H        49.2551587451       16.4763130760        3.5841082221
  H        10.1504841914       15.7983037657       12.2925283857
  H        50.8496821056       17.6925759955        3.9539798651
  H        10.0460582080       17.3947680819       12.0519095684
  H        20.2151339768        0.0020513539       12.0418866460
  H        39.1837443281       36.1244188287        3.6863761808
 Ni        30.4778389584       17.3577508858        2.8314135987
 Ni        30.1841815473       17.2845789512       -0.0833827576
 Ni        30.3921667412       17.5552779181       12.9950048573
  O        10.6498277280       14.3651948895        5.4857883259
  O        12.6131047198       14.6573601082        6.5838342311
  O        49.1476000268       16.8459416473        7.9896818810
  O        50.3499934216       20.9364842478        5.6483023903
  O        48.3484017736       20.5932455631        6.6659813276
  O        11.0508406209       17.0541392377        6.5006104383
  O        50.3206255476       20.8817060605       10.4068889461
  O        48.3465717286       20.5866386875        9.3270251777
  O        49.5432545577       18.2484207677       10.0682943509
  O        12.3586884772       18.6246842094        7.9995970312
  O        48.6931547674       14.1486147093        6.7512971536
  O         8.2098470532       14.2104025090        9.3225173187
  O        10.7352630379       14.5067819836       10.6643577554
  O        12.5716960559       14.5826947945        9.3285434511
  O        22.8441504642        2.0423469160        5.4877020479
  O        21.6036425863        3.5913885930        6.5904672570
  O        42.0578879437       34.1369890270        7.9790212664
  O        37.9813434065       33.1356142037        5.5716927574
  O        39.2167624850       31.5744922070        6.6649768232
  O        20.3082990810        1.0396609004        6.5018136012
  O        38.0241335160       33.1846935510       10.4157302972
  O        39.2178079872       31.5825668948        9.3277769260
  O        40.6520463856       33.7689789391       10.0601188117
  O        18.2556025623        1.3763827797        7.9967667332
  O        44.6222218255       35.1005501044        6.7588758146
  O        24.2055529151       -0.0001676500        9.3207338597
  O        22.7528969919        2.0557827991       10.5823947842
  O        21.6239792361        3.5949327612        9.3411562772
  O        27.4668619143       18.6782571791        5.4149232907
  O        26.6917806651       16.9282441555        6.6567628971
  O        30.6339412794       19.3463530977        7.9843846938
  O        33.5448752862       16.3204231640        5.6586298478
  O        34.2704417180       18.1758222315        6.7426357033
  O        29.5362907113       16.9988433640        6.5709742266
  O        33.5585367373       16.3426768348       10.4176738934
  O        34.2997657447       18.2394596387        9.4022021299
  O        31.6454156233       18.3238177345       10.0841541167
  O        30.2887799887       15.1010902755        8.0751277987
  O        28.5525874011       21.0228714450        6.7486898418
  O        28.5098576899       20.9535918589        9.3181912659
  O        27.4551495779       18.6805636323       10.6512851434
  O        26.6893968092       16.9305915725        9.4137687838
  O        13.1459260276       18.6940186524       10.5858561289
  O        13.9173836847       16.9158833432        9.4036864639
  O        50.5956236519       19.3502887194        8.0204869742
  O        47.6826539283       16.3271694606       10.4174866088
  O        46.9501217709       18.1756443207        9.3256980092
  O        11.0688187353       17.0159739763        9.4894955489
  O        47.6745943860       16.3359112230        5.6527912441
  O        46.9246328639       18.2358778899        6.6630777306
  O        49.5683687830       18.3178376599        5.9822143300
  O        10.3187339789       15.1001649134        7.9970514832
  O        52.6707037706       21.0280605857        9.2417896359
  O        12.1467797509       20.8914203657        6.6733237117
  O        13.1042572013       18.6143507680        5.3263207179
  O        13.9552624241       16.9865805071        6.6652768998
  O        29.9953687848       14.4382489302       10.6653143376
  O        28.0705055119       14.6567618419        9.4868236342
  O        32.0741219366       16.8514806222        8.0642933992
  O        30.9545798121       20.9517388093       10.3336463050
  O        32.9549026403       20.5916144125        9.3241998850
  O        29.5528466241       17.0701073025        9.5646617221
  O        30.8824929404       20.8111866372        5.5753158000
  O        32.8676531761       20.5787997838        6.6610014197
  O        31.6417149385       18.1838909629        5.9161698666
  O        28.2539639542       18.6310964648        8.0063474869
  O        32.4931898648       14.2107182274        9.3254898908
  O        32.4085945817       14.2081946618        6.8208197912
  O        29.8662418770       14.3680173122        5.4984174424
  O        27.9673865438       14.5800311012        6.7413865085
  O        17.8892016779        1.9664788078       10.6628337881
  O        18.9560704654        3.5271330623        9.4081294707
  O        39.1684257100       34.1385822248        7.9971353104
  O        43.2801888044       33.0588233421       10.3316774291
  O        42.0342544449       31.5064488377        9.2415675036
  O        20.3172031072        1.0361039317        9.4802709386
  O        43.2761459455       33.1825071845        5.5748953895
  O        42.0051865590       31.5841356066        6.5830334424
  O        40.5791329153       33.7752613687        5.9358746080
  O        22.3670090800        1.3842428769        7.9980290583
  O        36.6727966704       35.0996962105        9.2332872409
  O        16.4456880505        0.0640072027        6.6682220610
  O        17.9363873351        2.0431079660        5.3263973988
  O        18.9187120641        3.5931152726        6.6658304598
  O        29.7384984948       18.6818241581        4.0011681242
  O        29.6605158231       18.9801118305       11.9768333268
  O        31.2110750467       16.1099848506        4.0816420150
  O        31.4341711220       16.3438377846       12.0032269935
  O        29.4409109537       18.1569084111       14.4908136179
  O        39.4568953184       35.2438215138        4.0020051110
  O        19.1415530205        0.0044727312       11.9905173243
  O        41.9694710786       35.1727254991        4.0871616150
  O        21.6912410235       -0.0693955726       11.8960719502
  O        51.3643858839       18.6143853160        4.0052253233
  O        10.7508723740       18.7471873705       11.9050611442
  O        50.0794026501       16.4127092283        4.0917389708
  O         9.5244298226       16.4830901499       11.9912058460
 Zr         9.2969722282       16.0528731668        6.1822464528
 Zr        49.8365524475       16.0068483334        9.7465632608
 Zr        22.0734190878        0.0298872900        6.1893198924
 Zr        42.4608849876       35.1534467814        9.8010609243
 Zr        29.5847502570       19.0177994445        6.2009353931
 Zr        29.5632369583       19.1882266308        9.7845641941
 Zr        11.0374973891       19.0523959674        9.8277845250
 Zr        11.0435044777       19.1552041343        6.2509902053
 Zr        31.3172028014       16.0823935571        9.8420730048
 Zr        31.3625548651       15.9701107681        6.2771731005
 Zr        18.6011176336       -0.0015585944        9.7636820164
 Zr        18.5067211603       -0.0078366038        6.2134601345
 Zr        12.3013020879       16.3232502872        7.9904347691
 Zr        48.6162101820       18.8329384459        8.0101039806
 Zr        20.3146122356        2.4732712933        7.9908812468
 Zr        40.6428109992       32.6869524580        7.9780069460
 Zr        28.3117123737       16.3159071264        8.0761623323
 Zr        32.6109257585       18.8265347867        8.0237981765
  O        30.6322911159       16.2624070809        1.3402253344
  H        31.4272503252       15.7064594903        1.2678724781
