     570
 i =      112, E =     -4745.5721834524
  C        11.8586764358       14.0536055440        5.7415697261
  C        12.4561976849       12.8906226103        5.0232670926
  C        11.7044933402       12.1717270029        4.0816044325
  C        12.2808548241       11.1095206512        3.3892389062
  C        13.6214197617       10.7397205142        3.6169898678
  C        14.3546083694       11.4432723416        4.5904501557
  C        13.7817314272       12.5082567079        5.2819622738
  C        14.2609593719        9.6490522948        2.8436051435
  C        14.2563681294        9.6569960915        1.4219022777
  C        13.7432305397       10.7591329980        0.6679918917
  C        49.1267478685       21.2331811166        5.8797164418
  C        48.5499793622       22.4010898018        5.1526043321
  C        49.3000743938       23.0684771768        4.1717018972
  C        48.7331535582       24.1076128129        3.4384945920
  C        47.4025753568       24.5091703332        3.6670244289
  C        46.6715401282       23.8601974092        4.6804060684
  C        47.2339742191       22.8152913772        5.4097706890
  C        46.7723669735       25.5868859316        2.8697509773
  C        46.7614248399       25.5573332490        1.4479890770
  C        47.2613645826       24.4422510880        0.7044872291
  C        14.8603269252        8.5706624900        0.7086488620
  C        14.8916586453        8.5970650436        3.5202714385
  C        49.1131118017       21.2033897371       10.1453119271
  C        48.5277190065       22.3647379287       10.8724803054
  C        49.2670495101       23.0256090108       11.8652144710
  C        48.6907342489       24.0601606823       12.5966873968
  C        47.3602461411       24.4567769587       12.3586157858
  C        46.6396999287       23.8116859728       11.3353072860
  C        47.2132420978       22.7757707280       10.6035160487
  C        46.7218498366       25.5317773489       13.1496529833
  C        46.7336413570       25.5281719317       14.5713574119
  C        47.2490935144       24.4289579191       15.3277264677
  C        40.6219501581       17.0821725815       15.3152847480
  C        40.6381899983       17.1077835714       12.5056243259
  C        11.8829658034       14.0865544016       10.2854281065
  C        12.4722950689       12.9106907931       10.9896425402
  C        11.7147855354       12.1775301321       11.9157813224
  C        12.2813768077       11.0950946811       12.5842357389
  C        13.6201827360       10.7213603616       12.3524010522
  C        14.3581357119       11.4368550876       11.3915389319
  C        13.7927093648       12.5180065919       10.7188120720
  C        14.2538045136        9.6246481662       13.1228399847
  C        14.2525789667        9.6446493115       14.5446743074
  C        13.7427165042       10.7536052666       15.2917378353
  C        22.5100690726        3.2434751799        5.7529307035
  C        23.2214891243        4.3489105788        5.0515898330
  C        24.2163348841        4.0694059883        4.1032530073
  C        24.8401051545        5.1096242444        3.4196406885
  C        24.4840065520        6.4505489738        3.6648752787
  C        23.5173153889        6.7216059853        4.6501197878
  C        22.8889888590        5.6832554415        5.3320780280
  C        25.0871314521        7.5577466224        2.8895402398
  C        25.0601983800        7.5513886398        1.4682247204
  C        24.3590059053        6.5520108260        0.7213061709
  C        38.3025225786       31.9303317228        5.8494866692
  C        37.5723175808       30.8413831492        5.1404585711
  C        36.6109745668       31.1458996593        4.1647009847
  C        35.9931109618       30.1259989981        3.4466760492
  C        36.3223281840       28.7769595004        3.6828986086
  C        37.2540175429       28.4798328573        4.6952169842
  C        37.8757578879       29.4984421032        5.4123247339
  C        35.7194223660       27.6860436738        2.8855551164
  C        35.7475967002       27.7031145139        1.4642708186
  C        36.4520563482       28.7065539523        0.7271145436
  C        25.6832022501        8.6219095185        0.7494900935
  C        25.6819886084        8.6328191749        3.5616569351
  C        38.3286910645       31.9624934310       10.1561370905
  C        37.6063531608       30.8902307081       10.8981687826
  C        36.6760760231       31.2005829817       11.9018752675
  C        36.0645405716       30.1832303006       12.6316348777
  C        36.3691850264       28.8303360590       12.3811277977
  C        37.2772733801       28.5299013771       11.3474281583
  C        37.8908867154       29.5437690115       10.6188662673
  C        35.7595775744       27.7324410793       13.1654068445
  C        35.7678826696       27.7270273624       14.5873463500
  C        36.4612905800       28.7182911759       15.3504115450
  C        46.1356616363       26.6208197408       15.2815002101
  C        46.0878511983       26.5801056747       12.4735983303
  C        22.4602791451        3.2556846171       10.2569371121
  C        23.1531441742        4.3653995478       10.9790281897
  C        24.1562785621        4.0812142802       11.9191303668
  C        24.7822938068        5.1128070520       12.6145685007
  C        24.4249892479        6.4577185971       12.3921938287
  C        23.4453184593        6.7352801729       11.4202044147
  C        22.8146709879        5.7039316765       10.7253070756
  C        25.0528153739        7.5567444185       13.1670790607
  C        25.0429792851        7.5504910901       14.5896426341
  C        24.3488980757        6.5528206084       15.3445202926
  C        26.6248097587       17.8640984851        5.7837088399
  C        25.3163517548       17.9084282782        5.0592320673
  C        25.0600398660       18.8995998221        4.0987884251
  C        23.8465982387       18.9207294008        3.4135910679
  C        22.8521940659       17.9535996712        3.6660214950
  C        23.1049095207       16.9850686587        4.6559311808
  C        24.3203528739       16.9588249343        5.3388556856
  C        21.5786325836       17.9395274427        2.9018646122
  C        21.5778278912       17.9159556194        1.4792129109
  C        22.7828491136       17.7884397518        0.7185900942
  C        34.4289782526       17.2203050269        5.9167723047
  C        35.7212163984       17.1520979164        5.1728931634
  C        35.9181558218       16.1787364353        4.1810782050
  C        37.0995532686       16.1530593901        3.4445724452
  C        38.1162662196       17.0995170222        3.6794001279
  C        37.9219312138       18.0522906664        4.6977578079
  C        36.7385986750       18.0829338463        5.4318998245
  C        39.3705368396       17.0996910497        2.8917614009
  C        39.3655864436       17.1073854126        1.4696429526
  C        38.1584782984       17.2283038835        0.7116100271
  C        20.3311573031       17.9350692413        0.7705770126
  C        20.3535699045       17.9440877904        3.5838967764
  C        34.4492662735       17.2364412022       10.1850230319
  C        35.7520218985       17.1382740347       10.9057715720
  C        35.9564317994       16.1576853372       11.8878070630
  C        37.1456115825       16.1271351541       12.6120534920
  C        38.1587810828       17.0767189102       12.3750650071
  C        37.9606374979       18.0302208759       11.3588350378
  C        36.7708075864       18.0654665261       10.6374412896
  C        39.4067161554       17.0917563143       13.1706129971
  C        39.3842989135       17.1042244265       14.5921506385
  C        38.1673344521       17.2250149952       15.3347181956
  C        35.1367600931       26.6481891382       15.2912779969
  C        35.1704031330       26.6613318078       12.4822459804
  C        26.5685239673       17.8269013228       10.3233977622
  C        25.2541955647       17.8696838769       11.0314522608
  C        24.9912228783       18.8733417013       11.9761614828
  C        23.7742582442       18.8981938011       12.6515742785
  C        22.7904539673       17.9194972245       12.4054245448
  C        23.0479397695       16.9406362459       11.4285918717
  C        24.2659560162       16.9134849266       10.7517681373
  C        21.5270642174       17.9023774908       13.1786478152
  C        21.5515243958       17.8957566515       14.6001512377
  C        22.7698248815       17.7789113886       15.3421691674
  C        14.0463340275       17.8286067920       10.2893994732
  C        15.3502198221       17.8851423323       11.0159844191
  C        15.6068353877       18.8889423585       11.9630151773
  C        16.8153905413       18.9097898297       12.6567168600
  C        17.8017321344       17.9295639990       12.4258239549
  C        17.5496573256       16.9496525015       11.4470185053
  C        16.3406501092       16.9243427550       10.7547016114
  C        19.0708977567       17.9130253633       13.1948867692
  C        19.0701771381       17.9131077761       14.6174415980
  C        17.8633196628       17.8172708553       15.3792449586
  C        46.8035731485       17.2170105184       10.1583643657
  C        45.5123651038       17.1488041553       10.9023409484
  C        45.3092478894       16.1660324099       11.8837569062
  C        44.1267956229       16.1390191019       12.6185324583
  C        43.1164509251       17.0947299668       12.3947484180
  C        43.3168084568       18.0571359147       11.3864508871
  C        44.5000638111       18.0879732497       10.6522995305
  C        41.8627658357       17.0976056467       13.1837800033
  C        41.8686723353       17.0961625136       14.6060418530
  C        43.0774832757       17.1920534307       15.3648172992
  C        20.3172245490       17.9239884111       15.3254417861
  C        20.2948792051       17.8909537484       12.5123532531
  C        46.7836598783       17.2307119311        5.8882876477
  C        45.4802080271       17.1216717932        5.1723461337
  C        45.2629209024       16.1196692034        4.2141282096
  C        44.0746315155       16.0874675034        3.4881752695
  C        43.0727858245       17.0541714840        3.7025019746
  C        43.2806948574       18.0262394432        4.6991050652
  C        44.4701238638       18.0647594230        5.4203657334
  C        41.8257345086       17.0709607523        2.9053195149
  C        41.8497871144       17.0809938072        1.4839223926
  C        43.0686010295       17.1819713502        0.7417384458
  C        46.1534273185       26.6372338588        0.7262580440
  C        46.1623844018       26.6559715866        3.5358912349
  C        14.0457755087       17.8324595470        5.7093838833
  C        15.3674525551       17.9086782930        5.0202743533
  C        15.6406789618       18.9252960988        4.0929390046
  C        16.8700909424       18.9642479507        3.4389614655
  C        17.8538682892       17.9856908630        3.6864053126
  C        17.5876652545       16.9983462302        4.6524717583
  C        16.3602911703       16.9589136465        5.3100223418
  C        19.1209923639       17.9612809726        2.9171195612
  C        19.0962214630       17.9364946753        1.4956331802
  C        17.8760672881       17.8275922880        0.7554167485
  C        28.8079081687       14.0911828941       10.3913274055
  C        28.1908620212       12.9199746233       11.0794246036
  C        28.9108838314       12.1807783753       12.0293328016
  C        28.3095462429       11.1067351745       12.6802756662
  C        26.9738708325       10.7494565385       12.4062858868
  C        26.2752385715       11.4697818718       11.4209405354
  C        26.8747642792       12.5434384079       10.7675243156
  C        26.3033783526        9.6702107211       13.1664642381
  C        26.2893932230        9.6961952655       14.5874347553
  C        26.7943550819       10.8077605034       15.3343446715
  C        32.1788215298       21.2423928646       10.1452199189
  C        32.7728953312       22.4094679611       10.8629802898
  C        32.0213818320       23.0913754263       11.8322892800
  C        32.5905689725       24.1311982265       12.5609754100
  C        33.9269675495       24.5166539128       12.3408766043
  C        34.6611239760       23.8537555772       11.3395108120
  C        34.0941593203       22.8084381616       10.6128080505
  C        34.5543477367       25.5923922463       13.1417511641
  C        34.5442201744       25.5648636560       14.5633724498
  C        34.0328373207       24.4508292660       15.3013653734
  C        25.6788190944        8.6181031548       15.3049582422
  C        25.6682719772        8.6193539979       12.4919799779
  C        32.1018611850       21.2296880233        5.8844563954
  C        32.6923483598       22.3819785965        5.1408485817
  C        31.9547404077       23.0479265790        4.1497968824
  C        32.5351610406       24.0764769942        3.4112956951
  C        33.8668510352       24.4704793264        3.6471308066
  C        34.5872286579       23.8189878954        4.6665319356
  C        34.0117916446       22.7840560518        5.3992867076
  C        34.5059892118       25.5518753657        2.8622913053
  C        34.5183756717       25.5446332034        1.4403743234
  C        34.0194504320       24.4417798604        0.6782032838
  C        40.6120625467       17.0790716071        0.7604145606
  C        40.5947804304       17.0975773473        3.5705355451
  C        28.7313725852       14.0601443128        5.8226483069
  C        28.1188706105       12.9171485147        5.0832986963
  C        28.8605516019       12.2040713512        4.1288497936
  C        28.2762377927       11.1525405261        3.4269192719
  C        26.9357666326       10.7848240195        3.6586333286
  C        26.2110489479       11.4836161796        4.6420889076
  C        26.7925748083       12.5382711777        5.3429848036
  C        26.2939443296        9.6951641306        2.8849205514
  C        26.2872140485        9.7083734516        1.4634858053
  C        26.7921308921       10.8145107068        0.7103949168
  C        18.1353281133        3.1809889948       10.3172128439
  C        17.4059931826        4.2782170654       11.0157959703
  C        16.3904519297        3.9998554969       11.9435082453
  C        15.7427367741        5.0398505296       12.6069908346
  C        16.0944932944        6.3835840219       12.3671324173
  C        17.0836533892        6.6530924748       11.4031350144
  C        17.7327302306        5.6157450110       10.7380906457
  C        15.4702225650        7.4913014568       13.1301644124
  C        15.4855461030        7.4906353023       14.5518704929
  C        16.1871452347        6.4970595865       15.3050514519
  C        42.9459114436       31.8594800845       10.0729272560
  C        43.6462574742       30.7718485061       10.8168749791
  C        44.5917981670       31.0931686251       11.8029470389
  C        45.1975254347       30.0876141293       12.5505710631
  C        44.8710858880       28.7345456218       12.3357125691
  C        43.9452416816       28.4202081949       11.3225144428
  C        43.3364070058       29.4253578163       10.5745079319
  C        45.4886954063       27.6552535708       13.1388868837
  C        45.4929353663       27.6809333864       14.5605801396
  C        44.8058338024       28.6889644499       15.3072145949
  C        14.8565990396        8.5631461127       15.2642188416
  C        14.8749308291        8.5630615075       12.4515744951
  C        42.9464764526       31.9614515158        5.8089964661
  C        43.6917177508       30.8853589014        5.0955636136
  C        44.6562562629       31.1912840180        4.1231992143
  C        45.2777675334       30.1717000146        3.4054720419
  C        44.9540671178       28.8213612315        3.6431425244
  C        44.0206738641       28.5236916959        4.6540084225
  C        43.3924201289       29.5404445888        5.3662086302
  C        45.5631040335       27.7239930526        2.8578634172
  C        45.5334468911       27.7173748852        1.4365638435
  C        44.8271026922       28.7075885485        0.6836095972
  C        35.1252048004       26.6368642643        0.7362140878
  C        35.1177717565       26.6091336699        3.5460754131
  C        18.1484674617        3.2469978018        5.7065897144
  C        17.4298347418        4.3438221785        4.9973467228
  C        16.4147650340        4.0525471974        4.0736298071
  C        15.7664554321        5.0831863322        3.3982549094
  C        16.1209828451        6.4284362381        3.6211336240
  C        17.1121862923        6.7118158382        4.5785802772
  C        17.7598495406        5.6828954149        5.2583363491
  C        15.4905324832        7.5241495057        2.8486844645
  C        15.4965225650        7.5075535131        1.4275489566
  C        16.1933386504        6.5058744145        0.6808645799
  H        10.6723651695       12.4658777115        3.9046102393
  H        11.6945603367       10.5510373518        2.6627040071
  H        15.3916524443       11.1686914600        4.7721450104
  H        14.3511984692       13.0715277788        6.0173617591
  H        13.3761885392       11.6312385950        1.2013199624
  H        50.3228083618       22.7484811424        3.9870378204
  H        49.3196678550       24.6229297125        2.6809782256
  H        45.6419898173       24.1608395975        4.8634493708
  H        46.6628844643       22.2899435151        6.1717336816
  H        47.6298463362       23.5758464717        1.2461626990
  H        14.8719058094        8.5882882427        4.6085811607
  H        50.2871530025       22.7028628491       12.0599860249
  H        49.2691855611       24.5757312300       13.3600680987
  H        45.6102020409       24.1087325551       11.1464399627
  H        46.6522859367       22.2534350416        9.8321653426
  H        47.6078139531       23.5518184820       14.7968192780
  H        40.6440066989       17.0756901312       11.4177631146
  H        48.6870770497       14.0950171031        7.8000407214
  H        10.6813101605       12.4666172218       12.0931504930
  H        11.6895763325       10.5247081914       13.2969264331
  H        15.3935635515       11.1589646387       11.2056075918
  H        14.3650236173       13.0873681117        9.9902499442
  H        13.3758819686       11.6222041805       14.7530885793
  H        47.9300849059       14.2186947583        9.7106520610
  H        47.7800053906       14.3739415550        6.4953054418
  H        49.0829929943       18.5520452817       10.8671207591
  H        10.4158105710       14.1343939649        7.9985988887
  H        24.4780688557        3.0310093504        3.9125117809
  H        25.6120784842        4.8937235991        2.6842208081
  H        23.2356590830        7.7542995541        4.8450277215
  H        22.1201675588        5.8819568069        6.0747078540
  H        23.7978749003        5.7946990600        1.2609537275
  H        36.3731007180       32.1892093481        3.9712651904
  H        35.2471050499       30.3649497265        2.6919341227
  H        37.5153370599       27.4406804099        4.8841592688
  H        38.6207940269       29.2776027356        6.1729784226
  H        37.0173018465       29.4562070252        1.2731153953
  H        25.7154409493        8.6155529757        4.6495043829
  H        36.4532207211       32.2451305236       12.1073953597
  H        35.3375548587       30.4291124978       13.4025104547
  H        37.5242070387       27.4893139886       11.1475949575
  H        38.6144451318       29.3170422328        9.8396381024
  H        37.0347685363       29.4765108707       14.8250109316
  H        46.1091533383       26.5874263622       11.3855591940
  H        44.6682120835       35.1161331472        7.8139388811
  H        24.4358387706        3.0434873496       12.0864177202
  H        25.5637181179        4.8859640740       13.3367139234
  H        23.1583655172        7.7692332931       11.2396853822
  H        22.0422113171        5.9147670921        9.9893641238
  H        23.7794679126        5.7965893647       14.8119864137
  H        44.9536186958       34.3901927045        9.6950729177
  H        44.9016301702       34.2066943178        6.4906568781
  H        40.6658977803       33.2088532328       10.8530592369
  H        23.1503037931        1.9576772113        8.0051202267
  H        25.8250304213       19.6479220315        3.9047044584
  H        23.6534571258       19.6962633242        2.6754176090
  H        22.3495084582       16.2290705362        4.8606490064
  H        24.5252592939       16.1973887087        6.0878398294
  H        23.7233366760       17.6671441007        1.2482313393
  H        35.1279405501       15.4543549293        3.9976395850
  H        37.2509378379       15.3906983530        2.6834963984
  H        38.6983665341       18.7914344265        4.8839976016
  H        36.5729263645       18.8332602086        6.2015675295
  H        37.2192020866       17.3567449056        1.2419183526
  H        20.3603193461       17.9854591409        4.6717229684
  H        35.1643065436       15.4381401829       12.0818868413
  H        37.3021333416       15.3638941145       13.3711858277
  H        38.7359449796       18.7698305827       11.1698543152
  H        36.5971550993       18.8205969535        9.8746039226
  H        37.2347355460       17.3500435089       14.7919491644
  H        35.1446444964       26.6861067881       11.3944820599
  H        28.5027048956       21.0873829299        7.9707337356
  H        25.7525912292       19.6278951092       12.1608326203
  H        23.5695286407       19.6812572941       13.3784893826
  H        22.2966024471       16.1783312561       11.2326733063
  H        24.4806747590       16.1463832570       10.0115120609
  H        23.7004399243       17.6499555693       14.7977155707
  H        29.0062197332       21.7218757933        9.7597307625
  H        29.1688321415       21.7388009309        6.6240129901
  H        32.0963005395       18.5603087542       10.9845351629
  H        27.3973357036       19.0750597373        8.0802454816
  H        14.8487312292       19.6486056597       12.1400225894
  H        17.0105104295       19.6947674406       13.3842248419
  H        18.3004834474       16.1847156801       11.2596785595
  H        16.1348609505       16.1546285872       10.0146405061
  H        16.9204499622       17.7022268783       14.8525265204
  H        46.0953363042       15.4365908617       12.0641337486
  H        43.9710981104       15.3689506531       13.3709127116
  H        42.5452620182       18.8034311229       11.2086525772
  H        44.6697648801       18.8455538060        9.8907144543
  H        44.0191416143       17.3059897726       14.8354112127
  H        20.2885240868       17.9188826511       11.4241737946
  H        46.0410944533       15.3801414842        4.0395520442
  H        43.9100450643       15.3094262411        2.7458984371
  H        42.5129287503       18.7775653761        4.8718301052
  H        44.6505074174       18.8344541631        6.1668145627
  H        44.0035391473       17.2869696199        1.2845070246
  H        46.1991566595       26.6824424309        4.6233378976
  H        52.7411146001       21.0626252363        8.1946543289
  H        14.8796318812       19.6785094562        3.9012429970
  H        17.0810231473       19.7554437666        2.7226927871
  H        18.3387404095       16.2366149932        4.8513880357
  H        16.1393728796       16.1836615900        6.0396647009
  H        16.9427230155       17.7205292950        1.2999181314
  H        52.3223193159       21.6732411538        6.2943409189
  H        52.0131706908       21.7020357519        9.4956469190
  H        49.0669057867       18.6074269918        5.2041834814
  H        13.2474321416       19.0164304634        7.9774746580
  H        29.9390110169       12.4636410560       12.2434669383
  H        28.8693954955       10.5312674908       13.4143347438
  H        25.2430939043       11.2035290328       11.2025296440
  H        26.3339106151       13.1209226074       10.0218089847
  H        27.1595803217       11.6758817694       14.7940540439
  H        30.9948629214       22.7799402345       12.0095856217
  H        32.0031864542       24.6593404370       13.3089123620
  H        35.6955322071       24.1424303805       11.1645091121
  H        34.6664167587       22.2704545634        9.8605144965
  H        33.6759052384       23.5828093736       14.7544301468
  H        25.6997901789        8.6003434018       11.4040220569
  H        30.9280948706       22.7405065751        3.9651357601
  H        31.9566068276       24.5935535893        2.6488414794
  H        35.6180387251       24.1124233012        4.8541904839
  H        34.5733446582       22.2583357474        6.1680680248
  H        33.6518853090       23.5667133581        1.2065129016
  H        40.5882527370       17.0643967028        4.6583713166
  H        32.5204250100       14.1452533423        8.2540922648
  H        29.8982533502       12.4821388911        3.9587137557
  H        28.8577106307       10.5958360932        2.6951451178
  H        25.1740222004       11.2111336586        4.8272102165
  H        26.2302643003       13.0947882517        6.0891530120
  H        27.1542078280       11.6878689820        1.2450247775
  H        33.2975865846       14.1858816812        6.4354564205
  H        33.4073338133       14.3989310715        9.6103020449
  H        32.1390987475       18.5651450596        5.2053629255
  H        30.2275543896       14.1889118130        8.0760621197
  H        16.1185015834        2.9633429727       12.1300351731
  H        14.9533900243        4.8204700535       13.3227635880
  H        17.3659034943        7.6859793462       11.2098315086
  H        18.5145629174        5.8183826846       10.0100229863
  H        16.7537242674        5.7397285031       14.7715683575
  H        44.8280955232       32.1402449137       11.9771334175
  H        45.9374056101       30.3413403221       13.3065107459
  H        43.6825127966       27.3781450905       11.1524122199
  H        42.5997896764       29.1899871613        9.8098582495
  H        44.2304264075       29.4366969792       14.7689146883
  H        14.8511140915        8.5462688769       11.3633599292
  H        44.8997450316       32.2339685183        3.9316977201
  H        46.0246115804       30.4129277490        2.6521747941
  H        43.7637721577       27.4839592171        4.8456304724
  H        42.6460109189       29.3175921049        6.1247249392
  H        44.2685278669       29.4704325336        1.2181804047
  H        35.0782935163       26.6198493152        4.6336694178
  H        36.6050425715       35.1340895161        8.1805492554
  H        16.1437805454        3.0129645299        3.9037894131
  H        14.9742255861        4.8563509307        2.6880579730
  H        17.3955430409        7.7473016497        4.7556202407
  H        18.5425751461        5.8933421995        5.9832604547
  H        16.7647760452        5.7556429339        1.2193162522
  H        36.2784621251       34.4825665944        6.2732283601
  H        36.3806504140       34.2092720037        9.4996418979
  H        40.5802754886       33.2024071141        5.1536672171
  H        17.4705088879        1.9473550470        7.9741114683
  H        29.0118818660       19.4146575955       12.4787642480
  H        29.5765177998       19.6327425061        3.5818883276
  H        30.5318660999       15.4904877618        3.9781489841
  H        31.1668882146       15.5472958264       12.4406691965
  H        27.7736442942       17.9626871458       14.5211188748
  H        29.1124904985       15.4274513089       14.4973204044
  H        31.2359474264       19.6045613558        1.3803843584
  H        32.0248565080       15.9493548856        1.8973658061
  H        18.8532838666        0.8690145186       12.3352419422
  H        40.5280311560       35.2290860180        3.9520893678
  H        42.3237302783       34.4186412111        3.5905942662
  H        22.0878010754        0.6923374307       12.3515444098
  H        11.5969447151       18.7130402907       12.3822896143
  H        52.2649765066       18.4309624699        3.6775760822
  H        49.2550029623       16.4770907475        3.5846021514
  H        10.1509983073       15.7982608676       12.2925381813
  H        50.8499919335       17.6924914960        3.9542529655
  H        10.0463703867       17.3946426326       12.0519711340
  H        20.2144338971        0.0022556906       12.0420545845
  H        39.1836699665       36.1244356023        3.6863647561
 Ni        30.6980173982       17.7158311636        2.9137059486
 Ni        30.9022398932       16.6200086591       -0.3308387455
 Ni        29.6270704156       18.6276370140       -0.0041668090
 Ni        29.9724145003       17.4124310374       13.0808193322
  O        10.6499305617       14.3651429544        5.4858139278
  O        12.6131713646       14.6575441177        6.5839004843
  O        49.1478190318       16.8459882634        7.9897469386
  O        50.3502258881       20.9359032528        5.6481159170
  O        48.3485359720       20.5932563884        6.6659482161
  O        11.0514672119       17.0539329527        6.5006829644
  O        50.3209414276       20.8816628932       10.4068129627
  O        48.3467093153       20.5866919839        9.3270798593
  O        49.5436252569       18.2484366910       10.0682176097
  O        12.3589913859       18.6246122742        7.9997018566
  O        48.6931990241       14.1486209454        6.7512897348
  O         8.2098834625       14.2103825179        9.3225225107
  O        10.7354002453       14.5067178403       10.6643219528
  O        12.5718386422       14.5828447949        9.3284634633
  O        22.8443079508        2.0427851567        5.4873417226
  O        21.6047705916        3.5917894710        6.5903314813
  O        42.0582132540       34.1373173790        7.9790650706
  O        37.9818102980       33.1386760989        5.5727558604
  O        39.2181608839       31.5764320143        6.6667229103
  O        20.3083794805        1.0395064320        6.5020232312
  O        38.0248994983       33.1863331161       10.4149560414
  O        39.2191205163       31.5838089069        9.3265138507
  O        40.6523271047       33.7693368300       10.0602953317
  O        18.2552218551        1.3762319903        7.9968088818
  O        44.6222415822       35.1005095787        6.7587382354
  O        24.2054120698        0.0000154469        9.3208215946
  O        22.7529447639        2.0579920975       10.5837877853
  O        21.6240549882        3.5957324482        9.3419152604
  O        27.4987088679       18.7546950193        5.4984719620
  O        26.7660036338       16.9340651061        6.6541941930
  O        30.6686572597       19.4092456409        8.0681291415
  O        33.5505789184       16.3315340433        5.6579370016
  O        34.2822735879       18.1845832476        6.7431720386
  O        29.5714514706       17.0666298291        6.5834245933
  O        33.5677312952       16.3379710043       10.4133990068
  O        34.3036129216       18.2423419848        9.4092868706
  O        31.6492791182       18.3169421765       10.1569226735
  O        30.3224572869       15.1553612512        8.0845503662
  O        28.5541551717       21.0352671283        6.9017491220
  O        28.5122244291       20.9599034068        9.4116099777
  O        27.4536207750       18.6790131168       10.6576816314
  O        26.6930966475       16.9283160129        9.4126900189
  O        13.1486165859       18.6930083880       10.5875132524
  O        13.9194890203       16.9162964376        9.4052334637
  O        50.5958178540       19.3501503702        8.0204053600
  O        47.6835296253       16.3268818097       10.4172037675
  O        46.9505941308       18.1754866926        9.3255735743
  O        11.0696927973       17.0155715285        9.4896446164
  O        47.6753985930       16.3357888035        5.6530224787
  O        46.9254436475       18.2357488905        6.6634806410
  O        49.5684356919       18.3177105556        5.9822718339
  O        10.3186020293       15.1002572446        7.9970577742
  O        52.6707364493       21.0278870888        9.2418172703
  O        12.1468098457       20.8911835580        6.6732482970
  O        13.1081314625       18.6137175669        5.3256409184
  O        13.9573029284       16.9870877504        6.6653928245
  O        29.9918177061       14.4395884649       10.7297108254
  O        28.0888054890       14.6540567612        9.4940265031
  O        32.1409141235       16.8634393658        8.0832021880
  O        30.9649627050       20.9536808088       10.4086431511
  O        32.9469218652       20.6034302029        9.3400581485
  O        29.5648860024       17.0773575753        9.5747920268
  O        30.8712475049       20.9474409293        5.6636650417
  O        32.8773482547       20.5869632057        6.6660521672
  O        31.6819392287       18.2543396599        6.0024311831
  O        28.2830888584       18.6773214190        8.0784937209
  O        32.4928552602       14.2116756836        9.3294676255
  O        32.4081785842       14.2117993486        6.8253537055
  O        29.9086818609       14.4302511807        5.4913225205
  O        28.0357808710       14.5861573106        6.7554617889
  O        17.8891894460        1.9666347711       10.6628354687
  O        18.9561563658        3.5271371685        9.4080185448
  O        39.1686788949       34.1388817035        7.9972013722
  O        43.2802158388       33.0589661246       10.3316967500
  O        42.0345301261       31.5064627042        9.2416464972
  O        20.3176104788        1.0366338641        9.4803236844
  O        43.2760583120       33.1824889399        5.5748777859
  O        42.0052752476       31.5840711089        6.5830086925
  O        40.5790363187       33.7749669304        5.9358764696
  O        22.3672285395        1.3844147216        7.9980252551
  O        36.6727014935       35.0998186178        9.2332292882
  O        16.4454970212        0.0643392102        6.6683342392
  O        17.9364522065        2.0433970465        5.3263376589
  O        18.9189271894        3.5931528916        6.6659191186
  O        29.8678915040       18.8947122585        4.1497420289
  O        29.7398313572       18.9809009453       11.9931131470
  O        31.1781576139       16.2017528480        4.1557285938
  O        31.3051876663       16.4058119544       11.9943135013
  O        31.5613708017       16.7080576270        1.4982365159
  O        29.9919839943       15.7442166800       14.2319815249
  O        30.3419517240       19.2725752422        1.5814406653
  O        28.6374216370       18.3933961207       14.4056907457
  O        39.4568288210       35.2438221374        4.0019216831
  O        19.1412233383        0.0045240598       11.9905930120
  O        41.9695551756       35.1726793486        4.0871354559
  O        21.6914136356       -0.0691100375       11.8959408970
  O        51.3651009549       18.6142810479        4.0054363570
  O        10.7510525171       18.7472405453       11.9049027606
  O        50.0795073667       16.4127982588        4.0917555678
  O         9.5249481763       16.4830153728       11.9912002460
 Zr         9.2965827078       16.0528876406        6.1823573052
 Zr        49.8362899233       16.0067674954        9.7465470307
 Zr        22.0731692691        0.0295082409        6.1891507513
 Zr        42.4609153665       35.1533200564        9.8010275146
 Zr        29.6037145680       19.0933614528        6.3126421227
 Zr        29.5780388257       19.1793103516        9.8527574348
 Zr        11.0378012218       19.0520157290        9.8276317122
 Zr        11.0437058318       19.1548315698        6.2511206982
 Zr        31.3509548750       16.1025683259        9.8745908167
 Zr        31.3996371359       16.0147422722        6.3025726535
 Zr        18.6010023822       -0.0014641214        9.7633452495
 Zr        18.5064367722       -0.0076067472        6.2137105766
 Zr        12.3020078727       16.3237028310        7.9902355111
 Zr        48.6157218724       18.8328733361        8.0102051246
 Zr        20.3146325131        2.4730045897        7.9906371018
 Zr        40.6434566245       32.6869872560        7.9783238365
 Zr        28.3428347117       16.3424749796        8.0842472535
 Zr        32.6373521160       18.8406352506        8.0607582106
  H        31.1250149255       18.1007138604       14.8968973491
  H        29.4211945159       17.2021044176        0.4177609235
