     570
 i =       23, E =     -4745.6145597580
  C        11.8586360856       14.0536299015        5.7415791604
  C        12.4561551900       12.8906422562        5.0232629467
  C        11.7044613444       12.1717193888        4.0816093610
  C        12.2808428748       11.1095185214        3.3892422674
  C        13.6214178739       10.7397422259        3.6169837291
  C        14.3546002928       11.4433380850        4.5904137745
  C        13.7817050621       12.5083114806        5.2819273799
  C        14.2609755903        9.6490776284        2.8435994604
  C        14.2563804570        9.6570097168        1.4218970055
  C        13.7432439629       10.7591462737        0.6679889357
  C        49.1267558773       21.2331528018        5.8797202463
  C        48.5499965576       22.4010828263        5.1526364878
  C        49.3001112328       23.0685252263        4.1717842128
  C        48.7331844851       24.1076533856        3.4385671978
  C        47.4025849397       24.5091722682        3.6670545172
  C        46.6715268431       23.8601479856        4.6803918410
  C        47.2339677731       22.8152456419        5.4097610967
  C        46.7723766109       25.5868929753        2.8697734465
  C        46.7614585716       25.5573515853        1.4480063807
  C        47.2614226680       24.4422765899        0.7045073893
  C        14.8603505558        8.5706784197        0.7086473376
  C        14.8916784717        8.5970919114        3.5202587030
  C        49.1131230408       21.2033708345       10.1453133576
  C        48.5277354408       22.3647331231       10.8724654500
  C        49.2670504921       23.0255748028       11.8652358504
  C        48.6907297739       24.0601197100       12.5967153340
  C        47.3602554299       24.4567690593       12.3586220221
  C        46.6397245359       23.8116993395       11.3352890603
  C        47.2132630678       22.7757846818       10.6034945414
  C        46.7218518138       25.5317646355       13.1496617832
  C        46.7336581753       25.5281737123       14.5713678185
  C        47.2491282639       24.4289745069       15.3277453999
  C        40.6163387917       17.0800989172       15.3140395115
  C        40.6303131163       17.1026775130       12.5039547218
  C        11.8829224104       14.0866247615       10.2854669754
  C        12.4722529412       12.9107528154       10.9896851655
  C        11.7147438495       12.1775547579       11.9157919751
  C        12.2813372932       11.0951046186       12.5842287411
  C        13.6201600120       10.7213973964       12.3524167058
  C        14.3581225124       11.4369499201       11.3915995161
  C        13.7926882780       12.5181146988       10.7188971464
  C        14.2537832862        9.6246490621       13.1228295128
  C        14.2525894928        9.6446605190       14.5446709624
  C        13.7427058598       10.7536117987       15.2917335562
  C        22.5113073011        3.2441853454        5.7531044512
  C        23.2251350019        4.3497489454        5.0530714067
  C        24.2211764122        4.0698889760        4.1059419726
  C        24.8474751816        5.1096784128        3.4236554140
  C        24.4932701391        6.4512292097        3.6686659383
  C        23.5253359837        6.7226811793        4.6526987242
  C        22.8943921449        5.6846648301        5.3333008128
  C        25.0985549288        7.5578694847        2.8930887608
  C        25.0688771520        7.5520768435        1.4716282355
  C        24.3647004271        6.5540154228        0.7257025620
  C        38.3022898479       31.9301555568        5.8494409090
  C        37.5716937794       30.8412194912        5.1406010485
  C        36.6104961186       31.1457693155        4.1646580387
  C        35.9922043213       30.1259396555        3.4468207779
  C        36.3206698866       28.7767404202        3.6833276121
  C        37.2521515347       28.4795999359        4.6958856971
  C        37.8743847756       29.4981380744        5.4127606784
  C        35.7176062890       27.6857368258        2.8859484678
  C        35.7467029809       27.7022969269        1.4646035436
  C        36.4515047606       28.7054445802        0.7273467686
  C        25.6921144356        8.6217687913        0.7516615810
  C        25.6977881093        8.6314844231        3.5639729126
  C        38.3285729198       31.9621731449       10.1562394494
  C        37.6062794410       30.8896457623       10.8981732080
  C        36.6760909098       31.1995485245       11.9021436879
  C        36.0647283212       30.1819428214       12.6317927309
  C        36.3693015378       28.8290255070       12.3810684258
  C        37.2772529930       28.5290625649       11.3470660419
  C        37.8907037676       29.5431771288       10.6186034054
  C        35.7598031427       27.7308702080       13.1653836573
  C        35.7681561161       27.7254698827       14.5874203754
  C        36.4613786377       28.7168021888       15.3506048742
  C        46.1356647640       26.6208156547       15.2815094313
  C        46.0878195989       26.5800786423       12.4736142324
  C        22.4601923984        3.2560081900       10.2577633635
  C        23.1526914605        4.3656785614       10.9810751468
  C        24.1543478602        4.0811676112       11.9227390405
  C        24.7805519925        5.1124083166       12.6187470059
  C        24.4253813890        6.4578092106       12.3954443299
  C        23.4467603086        6.7356157282       11.4223366327
  C        22.8157944659        5.7045868519       10.7270164585
  C        25.0547943196        7.5567800312       13.1697196904
  C        25.0467083221        7.5510855326       14.5925136853
  C        24.3523721124        6.5546460447       15.3488512265
  C        26.6255765659       17.8650035465        5.7816923045
  C        25.3171167363       17.9109590446        5.0590074227
  C        25.0623805164       18.8989091239        4.0947819503
  C        23.8485628744       18.9194640602        3.4102739359
  C        22.8525231059       17.9549536499        3.6665852366
  C        23.1037461276       16.9900965770        4.6604435755
  C        24.3192865313       16.9644114364        5.3430070835
  C        21.5791676491       17.9388455943        2.9021204798
  C        21.5787171469       17.9117569535        1.4794886787
  C        22.7837984659       17.7817335303        0.7193472030
  C        34.4222838817       17.2214822900        5.9130181902
  C        35.7129918858       17.1542234707        5.1679171762
  C        35.9094619630       16.1839047310        4.1729924800
  C        37.0927263492       16.1572650331        3.4395240403
  C        38.1117820476       17.1001400538        3.6791575722
  C        37.9174075657       18.0502534856        4.7002457295
  C        36.7326153171       18.0815157858        5.4320496901
  C        39.3667302773       17.1004361646        2.8919192255
  C        39.3612214967       17.1074082675        1.4695374508
  C        38.1536885388       17.2277982929        0.7120979097
  C        20.3322021770       17.9301395662        0.7705060823
  C        20.3538169485       17.9444944214        3.5837689080
  C        34.4369644544       17.2383934950       10.1905226726
  C        35.7376457912       17.1369114540       10.9138650821
  C        35.9440435404       16.1549859746       11.8943436737
  C        37.1353215866       16.1226315087       12.6155186891
  C        38.1493526707       17.0712028122       12.3771208666
  C        37.9489407007       18.0261011209       11.3625520533
  C        36.7574031212       18.0633107989       10.6443926766
  C        39.3992333230       17.0860416173       13.1702811100
  C        39.3780275293       17.1002634381       14.5919027088
  C        38.1616544860       17.2221010908       15.3352272651
  C        35.1370016769       26.6467182006       15.2915096526
  C        35.1702341454       26.6599168674       12.4822548311
  C        26.5718173050       17.8271277577       10.3249191902
  C        25.2580350936       17.8697926268       11.0335137896
  C        24.9950664571       18.8715544314       11.9802563939
  C        23.7775862451       18.8953761355       12.6550002920
  C        22.7932909499       17.9176848687       12.4063939045
  C        23.0510143224       16.9407544527       11.4276632849
  C        24.2693444634       16.9145442778       10.7515161475
  C        21.5293250130       17.8990763115       13.1789461617
  C        21.5531831634       17.8899757740       14.6004851731
  C        22.7710622321       17.7713521625       15.3429161682
  C        14.0468573215       17.8285625325       10.2893927769
  C        15.3512195528       17.8848030853       11.0155671602
  C        15.6083374294       18.8875328946       11.9636422529
  C        16.8171726743       18.9076074098       12.6570445463
  C        17.8036352989       17.9277050127       12.4249487170
  C        17.5511768996       16.9491165044       11.4448626731
  C        16.3418628126       16.9245124040       10.7529394737
  C        19.0728910154       17.9099298573       13.1942464005
  C        19.0718025745       17.9082246930       14.6168948919
  C        17.8647804314       17.8121875380       15.3784575025
  C        46.8019572098       17.2169005444       10.1582596156
  C        45.5092304239       17.1479175572       10.9010358112
  C        45.3047383263       16.1648113617       11.8819810414
  C        44.1212530366       16.1369626458       12.6154625984
  C        43.1101395230       17.0920187377       12.3914561521
  C        43.3116982742       18.0545248132       11.3833287696
  C        44.4960938598       18.0862556583       10.6504930867
  C        41.8558802487       17.0943482942       13.1808897883
  C        41.8624958415       17.0944694626       14.6034759549
  C        43.0715690368       17.1923806277       15.3616710397
  C        20.3186354213       17.9182751304       15.3253532381
  C        20.2972576870       17.8889430705       12.5121531432
  C        46.7829870359       17.2312609430        5.8873374200
  C        45.4794952917       17.1232519956        5.1703019490
  C        45.2622944605       16.1230158298        4.2101093967
  C        44.0736603380       16.0911453119        3.4844305707
  C        43.0706506905       17.0564452765        3.7004476601
  C        43.2788235682       18.0271002571        4.6985291390
  C        44.4685725137       18.0652394492        5.4196014272
  C        41.8226251955       17.0728220425        2.9039510515
  C        41.8455681342       17.0821104898        1.4822720992
  C        43.0635844892       17.1835949546        0.7387336767
  C        46.1534407399       26.6372390405        0.7262687412
  C        46.1623652735       26.6559671176        3.5359154536
  C        14.0458024446       17.8323230254        5.7091469903
  C        15.3674003492       17.9081421484        5.0196995068
  C        15.6405244974       18.9240111603        4.0914858516
  C        16.8699348834       18.9626233633        3.4373951673
  C        17.8539765282       17.9845349087        3.6856736220
  C        17.5878151793       16.9978822485        4.6524712796
  C        16.3604215379       16.9587273920        5.3100398898
  C        19.1213757733       17.9596918214        2.9166717549
  C        19.0970558210       17.9326310885        1.4952072982
  C        17.8771718966       17.8229963795        0.7546614383
  C        28.8084394821       14.0927088623       10.3908969382
  C        28.1937401235       12.9212144165       11.0800043129
  C        28.9145774783       12.1810507716       12.0287290004
  C        28.3137108339       11.1065037958       12.6795663455
  C        26.9777879043       10.7488622847       12.4066238222
  C        26.2785469133       11.4700269951       11.4222065026
  C        26.8772622017       12.5443968072       10.7692573686
  C        26.3075104140        9.6694068298       13.1672242882
  C        26.2952075714        9.6955947117       14.5882890372
  C        26.8010340456       10.8072313545       15.3343938063
  C        32.1782540753       21.2393036535       10.1477703612
  C        32.7718302807       22.4058325264       10.8658175168
  C        32.0210526836       23.0876863350       11.8358740312
  C        32.5904580588       24.1283322347       12.5632890458
  C        33.9263231675       24.5149695647       12.3415694906
  C        34.6595476183       23.8521530567       11.3393491809
  C        34.0925191603       22.8061629748       10.6137337142
  C        34.5541636799       25.5910809264       13.1419477390
  C        34.5446039932       25.5632734621       14.5636400970
  C        34.0341611443       24.4488979514       15.3017488029
  C        25.6849332106        8.6180100759       15.3069316214
  C        25.6707032543        8.6187893349       12.4937042989
  C        32.1015523169       21.2267598675        5.8813424717
  C        32.6913900825       22.3788374893        5.1383537813
  C        31.9546683300       23.0423910171        4.1450647805
  C        32.5344971142       24.0724778271        3.4082515594
  C        33.8647444655       24.4696265854        3.6471062376
  C        34.5842036791       23.8199998632        4.6683837703
  C        34.0092896443       22.7841112594        5.4000821864
  C        34.5040247171       25.5513803230        2.8626846504
  C        34.5180052289       25.5434950442        1.4407001147
  C        34.0205003784       24.4399611390        0.6785872490
  C        40.6073469339       17.0787048521        0.7594465689
  C        40.5917222296       17.0990699670        3.5698232285
  C        28.7414577566       14.0700030258        5.8126222589
  C        28.1351948076       12.9223107036        5.0759128746
  C        28.8740526891       12.2151124756        4.1148697959
  C        28.2908082100       11.1596469991        3.4175666235
  C        26.9540264864       10.7833599580        3.6582538282
  C        26.2327876180       11.4768368486        4.6481249258
  C        26.8132950879       12.5339619995        5.3456306289
  C        26.3102359255        9.6934377241        2.8862273935
  C        26.2989960555        9.7074763807        1.4646199948
  C        26.8014684938       10.8140126481        0.7104224520
  C        18.1353435508        3.1809567860       10.3171820056
  C        17.4060216854        4.2782003578       11.0157676703
  C        16.3904923937        3.9998398995       11.9434957653
  C        15.7427672532        5.0398246313       12.6069871994
  C        16.0944686180        6.3835700283       12.3671009403
  C        17.0836016754        6.6530813012       11.4030700485
  C        17.7326911863        5.6157389520       10.7380230269
  C        15.4701858256        7.4912855004       13.1301435976
  C        15.4855360107        7.4906331649       14.5518549206
  C        16.1871118287        6.4970447064       15.3050446631
  C        42.9459056129       31.8594628726       10.0729053200
  C        43.6462740036       30.7718348528       10.8168315615
  C        44.5918237223       31.0931480017       11.8028989585
  C        45.1974987247       30.0875931685       12.5505676751
  C        44.8710681628       28.7345214349       12.3357109960
  C        43.9452243225       28.4201947463       11.3225062816
  C        43.3364003940       29.4253437851       10.5744849005
  C        45.4886764377       27.6552340180       13.1388974878
  C        45.4929263334       27.6809212694       14.5605893939
  C        44.8058235118       28.6889496688       15.3072212811
  C        14.8565976321        8.5631454745       15.2642143316
  C        14.8749055347        8.5630604369       12.4515499327
  C        42.9464870914       31.9614876427        5.8089801595
  C        43.6917034399       30.8854009517        5.0955291213
  C        44.6562549873       31.1913061479        4.1231704858
  C        45.2777783985       30.1717174852        3.4054651269
  C        44.9540652818       28.8213797900        3.6431400819
  C        44.0206172326       28.5237219361        4.6539613772
  C        43.3923430416       29.5404886463        5.3661263752
  C        45.5631118165       27.7240008050        2.8578734487
  C        45.5334504988       27.7173751292        1.4365721912
  C        44.8270964056       28.7075797873        0.6836154299
  C        35.1248621151       26.6357198358        0.7365125688
  C        35.1151630465       26.6091511106        3.5464167616
  C        18.1485179121        3.2470140711        5.7066101285
  C        17.4298731576        4.3438510891        4.9973902754
  C        16.4148324870        4.0525737405        4.0736337224
  C        15.7665224869        5.0832102993        3.3982497599
  C        16.1210093224        6.4284670785        3.6211515988
  C        17.1121762995        6.7118470877        4.5786362199
  C        17.7598358343        5.6829345126        5.2584077612
  C        15.4905682289        7.5241758889        2.8486866455
  C        15.4965268346        7.5075603396        1.4275524738
  C        16.1933285386        6.5058808773        0.6808583133
  H        10.6723226238       12.4658420714        3.9046190326
  H        11.6945431390       10.5510202901        2.6627222557
  H        15.3916569004       11.1687998632        4.7720890673
  H        14.3511755127       13.0716128486        6.0172992204
  H        13.3761876412       11.6312460250        1.2013119783
  H        50.3228635510       22.7485719621        3.9871493452
  H        49.3197216333       24.6230050326        2.6810890973
  H        45.6419553469       24.1607530424        4.8633952177
  H        46.6628498863       22.2898636907        6.1716802560
  H        47.6299339211       23.5758833311        1.2461858972
  H        14.8719302848        8.5883279018        4.6085651094
  H        50.2871485675       22.7028214803       12.0600288040
  H        49.2691817067       24.5756701186       13.3601082534
  H        45.6102359530       24.1087600568       11.1464006563
  H        46.6523171867       22.2534731661        9.8321202133
  H        47.6078720760       23.5518424389       14.7968451005
  H        40.6351257867       17.0698947492       11.4160802292
  H        48.6869816434       14.0950960438        7.7999448184
  H        10.6812598703       12.4666076213       12.0931610933
  H        11.6895388551       10.5246923929       13.2969065540
  H        15.3935688842       11.1591025816       11.2056924169
  H        14.3650211161       13.0875330178        9.9903977294
  H        13.3758763413       11.6222128377       14.7530763858
  H        47.9300161270       14.2187714704        9.7107378789
  H        47.7799515324       14.3739027272        6.4951756023
  H        49.0826747320       18.5519240757       10.8670233690
  H        10.4157536562       14.1344422989        7.9987470181
  H        24.4820684607        3.0313314208        3.9148521159
  H        25.6200021431        4.8926964684        2.6891160184
  H        23.2444968385        7.7555612479        4.8478863202
  H        22.1247256000        5.8844583752        6.0748056574
  H        23.8032571243        5.7975616049        1.2662436128
  H        36.3730048068       32.1891036769        3.9708757475
  H        35.2463995118       30.3651309623        2.6919514573
  H        37.5129911569       27.4403909917        4.8852029056
  H        38.6192462607       29.2770299008        6.1735153044
  H        37.0164945893       29.4553200559        1.2733348814
  H        25.7337474505        8.6136917910        4.6517513472
  H        36.4530719056       32.2440019596       12.1080009067
  H        35.3378377936       30.4277190324       13.4027965728
  H        37.5242536450       27.4885666270       11.1468185139
  H        38.6140941044       29.3165499233        9.8391826746
  H        37.0350386844       29.4749547630       14.8253092499
  H        46.1091173132       26.5873981283       11.3855765854
  H        44.6681859720       35.1161127318        7.8139376126
  H        24.4329099559        3.0432924928       12.0908062452
  H        25.5609388256        4.8847146567       13.3417479941
  H        23.1608211624        7.7697066001       11.2409517202
  H        22.0443515683        5.9161777542        9.9902011318
  H        23.7808762187        5.7991576713       14.8174519841
  H        44.9535733651       34.3902191713        9.6951092489
  H        44.9014984869       34.2066883792        6.4906205974
  H        40.6657816161       33.2087922984       10.8529840039
  H        23.1504230684        1.9577051205        8.0053606065
  H        25.8290087639       19.6443700846        3.8962277296
  H        23.6568116688       19.6923023801        2.6689343221
  H        22.3472161971       16.2361206970        4.8683507967
  H        24.5228684267       16.2053195986        6.0946698353
  H        23.7241252703       17.6596178502        1.2491359699
  H        35.1178437659       15.4627380484        3.9834326459
  H        37.2429489698       15.3969345209        2.6762421535
  H        38.6949567142       18.7871945026        4.8905248088
  H        36.5677905917       18.8297554038        6.2039219327
  H        37.2144034981       17.3576815001        1.2421117206
  H        20.3602186946       17.9883421337        4.6714975159
  H        35.1533529145       15.4343829221       12.0900975969
  H        37.2924537185       15.3584233008       13.3735461378
  H        38.7242073317       18.7653988585       11.1722436433
  H        36.5831855456       18.8193242766        9.8826214828
  H        37.2283358416       17.3463701136       14.7936019214
  H        35.1441506037       26.6848747609       11.3944982964
  H        28.5069111259       21.0740658020        7.9551464664
  H        25.7568600684       19.6251311701       12.1672830253
  H        23.5730703498       19.6768944507       13.3836411730
  H        22.2994914646       16.1791766766       11.2296478713
  H        24.4838193090       16.1489007346       10.0097348650
  H        23.7017466535       17.6412853597       14.7988672404
  H        29.0112635060       21.7204081558        9.7514985609
  H        29.1750920541       21.7352649097        6.6232392443
  H        32.0683645539       18.5561790689       10.9993249180
  H        27.4061103060       19.0730393660        8.0776207018
  H        14.8503789941       19.6470687478       12.1418715977
  H        17.0123281279       19.6917953784       13.3854053900
  H        18.3019395479       16.1844285003       11.2562327397
  H        16.1360352662       16.1555842705       10.0120749466
  H        16.9220266951       17.6971323743       14.8515220864
  H        46.0906864149       15.4354392085       12.0633587653
  H        43.9655735849       15.3664924496       13.3674560601
  H        42.5402406134       18.8006766724       11.2044223971
  H        44.6657903165       18.8443672503        9.8893943921
  H        44.0128700585       17.3066663423       14.8317030310
  H        20.2913091951       17.9188813010       11.4240115664
  H        46.0407159805       15.3841121880        4.0338991455
  H        43.9097320175       15.3139901338        2.7410703067
  H        42.5107774859       18.7777574056        4.8730026555
  H        44.6482795042       18.8339252887        6.1672764950
  H        43.9989304449       17.2900872147        1.2805419411
  H        46.1991228199       26.6824344319        4.6233657428
  H        52.7411396475       21.0626431235        8.1946592637
  H        14.8794135985       19.6770139740        3.8991946126
  H        17.0806572537       19.7532825833        2.7204729984
  H        18.3390061316       16.2364364266        4.8520156441
  H        16.1396609967       16.1839446105        6.0402285945
  H        16.9436530920       17.7162612600        1.2989362933
  H        52.3224755019       21.6732651486        6.2942811848
  H        52.0132871965       21.7021007063        9.4956929854
  H        49.0668429988       18.6074834699        5.2042193584
  H        13.2474054688       19.0163642245        7.9774936560
  H        29.9433055175       12.4625580876       12.2418521308
  H        28.8744075419       10.5308250850       13.4128125688
  H        25.2462610073       11.2039434062       11.2042214967
  H        26.3353032072       13.1222946559       10.0246824631
  H        27.1645500146       11.6758190927       14.7937749597
  H        30.9948967870       22.7762023892       12.0150813268
  H        32.0034314149       24.6560485630       13.3117967003
  H        35.6934703831       24.1415375343       11.1626996570
  H        34.6643185272       22.2689723435        9.8605458440
  H        33.6779078077       23.5804550906       14.7550919718
  H        25.7010316275        8.5993122181       11.4057094777
  H        30.9299275062       22.7310014075        3.9565832010
  H        31.9565560661       24.5877241751        2.6441059336
  H        35.6140181731       24.1154906911        4.8582289911
  H        34.5703286212       22.2600571958        6.1703366518
  H        33.6537176635       23.5644934929        1.2068391527
  H        40.5859691498       17.0661313911        4.6576905572
  H        32.5105074315       14.1528205557        8.2530226959
  H        29.9077820857       12.5016802239        3.9348057161
  H        28.8704548363       10.6075297681        2.6809025982
  H        25.1985974955       11.1987176797        4.8405269783
  H        26.2528548142       13.0860729043        6.0963408246
  H        27.1638435139       11.6879996318        1.2438125006
  H        33.2987169004       14.2005181853        6.4425020014
  H        33.4053471912       14.4080373876        9.6021507407
  H        32.0776203736       18.5343658846        5.1523781420
  H        30.2204473304       14.1916480451        8.0738809226
  H        16.1185616429        2.9633279496       12.1300495133
  H        14.9534349981        4.8204255165       13.3227720385
  H        17.3657951603        7.6859769346       11.2097216216
  H        18.5144958999        5.8183904617       10.0099283340
  H        16.7536635308        5.7396917155       14.7715609682
  H        44.8281325786       32.1402217511       11.9770869507
  H        45.9373740388       30.3413212099       13.3065099199
  H        43.6824715785       27.3781358595       11.1524146661
  H        42.5997743698       29.1899672876        9.8098428422
  H        44.2303957672       29.4366696199       14.7689302255
  H        14.8510596067        8.5462627610       11.3633326406
  H        44.8997727969       32.2339833066        3.9316790269
  H        46.0246503602       30.4129275577        2.6521905228
  H        43.7636780698       27.4839931917        4.8455678580
  H        42.6458982665       29.3176400729        6.1246091955
  H        44.2685070592       29.4704121321        1.2181907683
  H        35.0747500485       26.6203809633        4.6339761667
  H        36.6050243540       35.1340711970        8.1805712301
  H        16.1438645240        3.0129876598        3.9037741487
  H        14.9743109637        4.8563498704        2.6880416344
  H        17.3954894865        7.7473353831        4.7557125871
  H        18.5425269857        5.8933894954        5.9833667407
  H        16.7647413393        5.7556283451        1.2192992791
  H        36.2784093726       34.4826175473        6.2732158602
  H        36.3805654837       34.2093028243        9.4997086606
  H        40.5801359164       33.2023368994        5.1536424124
  H        17.4706414702        1.9472729350        7.9741402370
  H        29.0777201466       19.3753560703       12.5415751321
  H        29.5922222350       19.5543157004        3.5209426918
  H        30.4467275357       15.6923234017        3.8399157911
  H        31.1413504078       15.6096944754       12.5133304357
  H        27.8362611120       17.8321091173       14.4085974764
  H        29.1018293125       15.4258976713       14.4040490866
  H        31.3334583040       19.5094439298        1.2980650373
  H        32.0755674370       16.0007292503        1.9268299659
  H        18.8529094965        0.8688099898       12.3352283569
  H        40.5281578877       35.2294148891        3.9520976241
  H        42.3238774112       34.4187903809        3.5907266846
  H        22.0877269559        0.6922263133       12.3515453891
  H        11.5970795304       18.7127513028       12.3822241611
  H        52.2648475172       18.4309861958        3.6775666371
  H        49.2546745059       16.4771211899        3.5847073576
  H        10.1501683844       15.7982727306       12.2927323613
  H        50.8498843256       17.6925560112        3.9542361205
  H        10.0459931036       17.3946148051       12.0519316294
  H        20.2140080934        0.0021125441       12.0421020276
  H        39.1838476874       36.1248059594        3.6864745307
 Ni        30.8142559979       17.7460395101        2.7513368744
 Ni        30.8151920522       16.3775433514       -0.1639201239
 Ni        29.5913761735       18.5515563749       -0.0022254867
 Ni        29.8878546493       17.3549932850       13.1582830573
  O        10.6498696519       14.3651568640        5.4858301238
  O        12.6131473467       14.6575465500        6.5839090062
  O        49.1476089037       16.8459566436        7.9897277396
  O        50.3502297434       20.9358598967        5.6481251964
  O        48.3485281948       20.5932452977        6.6659712467
  O        11.0514181083       17.0539136213        6.5006855775
  O        50.3209465889       20.8816396212       10.4068164704
  O        48.3467057039       20.5866698266        9.3270770111
  O        49.5435208622       18.2484191872       10.0682022258
  O        12.3589371463       18.6245993907        7.9997289392
  O        48.6931560028       14.1486808038        6.7512437115
  O         8.2098220874       14.2104777986        9.3225930746
  O        10.7353351293       14.5067669341       10.6643181281
  O        12.5718085725       14.5828456328        9.3284698525
  O        22.8445785538        2.0432919236        5.4871744263
  O        21.6053027984        3.5922320679        6.5898885208
  O        42.0581780416       34.1373217007        7.9790018615
  O        37.9817837122       33.1385815194        5.5727099406
  O        39.2180987571       31.5763744030        6.6666176361
  O        20.3084102884        1.0395597871        6.5020575032
  O        38.0247604520       33.1860632298       10.4150127954
  O        39.2190681799       31.5837223168        9.3265369072
  O        40.6522874251       33.7693381909       10.0602640129
  O        18.2553659657        1.3761548579        7.9967926299
  O        44.6222341204       35.1005359189        6.7587377477
  O        24.2053781659        0.0000387475        9.3208338919
  O        22.7530198115        2.0581994701       10.5839997742
  O        21.6243112411        3.5960683022        9.3424080296
  O        27.5009298894       18.7547735126        5.4966495172
  O        26.7666855719       16.9348532162        6.6527470861
  O        30.6604637172       19.4030824505        8.0608661531
  O        33.5434130470       16.3297436075        5.6554072289
  O        34.2754664903       18.1780804834        6.7458373038
  O        29.5723651238       17.0647009585        6.5771966917
  O        33.5497736511       16.3395402696       10.4176657258
  O        34.2987327944       18.2377372894        9.4079702405
  O        31.6480406168       18.3162939337       10.1562881295
  O        30.3211956333       15.1576568360        8.0816240048
  O        28.5560606028       21.0321159422        6.8919596323
  O        28.5142406126       20.9557258057        9.4138862827
  O        27.4572553975       18.6796499513       10.6583750905
  O        26.6941775446       16.9289637152        9.4130322764
  O        13.1490411530       18.6928762576       10.5876080321
  O        13.9196041422       16.9162746154        9.4052305257
  O        50.5957227108       19.3500695742        8.0204527168
  O        47.6823257459       16.3272330014       10.4174284436
  O        46.9499881940       18.1755822748        9.3258068347
  O        11.0695900212       17.0155839104        9.4896342363
  O        47.6746021128       16.3359560378        5.6527155936
  O        46.9249161477       18.2358280520        6.6632088317
  O        49.5683392821       18.3176934228        5.9823094991
  O        10.3185429989       15.1003067247        7.9971026367
  O        52.6707426028       21.0278621864        9.2418209517
  O        12.1468062746       20.8911601249        6.6732639818
  O        13.1081469911       18.6136971927        5.3256218015
  O        13.9573443887       16.9871396101        6.6653601574
  O        29.9940590030       14.4420108222       10.7285117849
  O        28.0893269768       14.6544035354        9.4939721381
  O        32.0780921624       16.8657210047        8.0773074228
  O        30.9631832117       20.9498527473       10.4108675065
  O        32.9448847045       20.6026110774        9.3396240792
  O        29.5619126159       17.0776444568        9.5750995881
  O        30.8707264600       20.9436799960        5.6613940105
  O        32.8761506866       20.5865843245        6.6665780453
  O        31.6830026836       18.2533613014        5.9958307470
  O        28.2922369633       18.6758789468        8.0756558093
  O        32.4899918229       14.2145017065        9.3289409019
  O        32.4042756993       14.2192300772        6.8215900651
  O        29.9173183578       14.4484044130        5.4751928677
  O        28.0427983934       14.5859494890        6.7495386211
  O        17.8892148556        1.9666174438       10.6628294880
  O        18.9562073513        3.5271270969        9.4079983635
  O        39.1686791625       34.1388319853        7.9971792101
  O        43.2802107374       33.0589577999       10.3316954608
  O        42.0345294879       31.5064600512        9.2416240411
  O        20.3176343652        1.0366970389        9.4802801763
  O        43.2760636871       33.1825422104        5.5748864962
  O        42.0052696590       31.5841095179        6.5829903170
  O        40.5790341266       33.7749823933        5.9357893091
  O        22.3672699346        1.3845572340        7.9979676068
  O        36.6727263499       35.0998068816        9.2332425226
  O        16.4455204022        0.0643489826        6.6683295120
  O        17.9364620605        2.0434145098        5.3263798289
  O        18.9190179523        3.5931375049        6.6659406724
  O        29.9119097749       18.8200123362        4.0760922343
  O        29.7883490241       18.9077099107       12.0609321681
  O        31.1685839879       16.3303826634        4.0078482645
  O        31.1815288213       16.4785670282       12.0650696050
  O        31.7730636470       16.7794515555        1.4210176009
  O        30.0006817044       15.7603742495       14.2387712277
  O        30.4506276535       19.1849490388        1.5569717439
  O        28.6767937545       18.3169292582       14.3298024680
  O        39.4570333295       35.2441668090        4.0019315685
  O        19.1408940748        0.0043279122       11.9905947004
  O        41.9697953578       35.1729202877        4.0871973553
  O        21.6913344381       -0.0691812110       11.8958857878
  O        51.3649636627       18.6142896717        4.0054319153
  O        10.7511646555       18.7471767173       11.9048932021
  O        50.0792191469       16.4127848745        4.0917954897
  O         9.5243303226       16.4831290434       11.9911637856
 Zr         9.2964854076       16.0529693014        6.1823337090
 Zr        49.8360635481       16.0069058970        9.7465352747
 Zr        22.0731787026        0.0295766057        6.1891453450
 Zr        42.4608462390       35.1532593701        9.8009902884
 Zr        29.6110646151       19.0849677044        6.2633305627
 Zr        29.5771806168       19.1748096888        9.8683682877
 Zr        11.0378827586       19.0519990637        9.8276881876
 Zr        11.0436862670       19.1548485533        6.2511622009
 Zr        31.3325079177       16.1071837123        9.8811898254
 Zr        31.3917880546       16.0267093855        6.2717808413
 Zr        18.6009504884       -0.0015808498        9.7632797116
 Zr        18.5063996691       -0.0076992758        6.2136639894
 Zr        12.3020836796       16.3237141870        7.9902763257
 Zr        48.6154945967       18.8328326729        8.0102385850
 Zr        20.3148389497        2.4730941847        7.9905973422
 Zr        40.6433853851       32.6868540088        7.9782872432
 Zr        28.3413689608       16.3469129509        8.0809426001
 Zr        32.6208579658       18.8446502977        8.0547061929
  H        30.8543332301       17.8813097780       15.2879300449
  H        29.5212890548       17.0317023627        0.4589478762
