     570
 i =       92, E =     -4745.5558473532
  C        11.8587197533       14.0536505077        5.7415388217
  C        12.4562446759       12.8906703203        5.0232284292
  C        11.7045168807       12.1717070517        4.0816340645
  C        12.2808761923       11.1094833630        3.3892892853
  C        13.6214689184       10.7397508618        3.6169827505
  C        14.3546971826       11.4433910104        4.5903429966
  C        13.7818211814       12.5083946285        5.2818269649
  C        14.2609873839        9.6490620925        2.8436066721
  C        14.2563736447        9.6569793756        1.4219065898
  C        13.7432501745       10.7591259604        0.6680048470
  C        49.1267853260       21.2331351773        5.8797166657
  C        48.5500121183       22.4010855717        5.1526158174
  C        49.3001090691       23.0684938937        4.1717353808
  C        48.7331872307       24.1076308488        3.4385205481
  C        47.4026030398       24.5091710867        3.6670402343
  C        46.6715623572       23.8601815192        4.6804093715
  C        47.2340054091       22.8152768310        5.4097764236
  C        46.7723859850       25.5868892839        2.8697617442
  C        46.7613970725       25.5573235731        1.4479954964
  C        47.2613527181       24.4422418289        0.7044994257
  C        14.8602969272        8.5706232487        0.7086585060
  C        14.8917038185        8.5970902243        3.5202672294
  C        49.1131410628       21.2033438722       10.1453319561
  C        48.5277336968       22.3647164563       10.8725088313
  C        49.2670606923       23.0255797669       11.8652457511
  C        48.6907501059       24.0601434902       12.5967138778
  C        47.3602674821       24.4567622626       12.3586346702
  C        46.6397221464       23.8116757630       11.3353248016
  C        47.2132613541       22.7757502775       10.6035424932
  C        46.7218512864       25.5317618723       13.1496642024
  C        46.7336262061       25.5281647592       14.5713694041
  C        47.2490692447       24.4289460368       15.3277380528
  C        40.6203881380       17.0792100119       15.3141520174
  C        40.6359162167       17.1022965098       12.5044165686
  C        11.8830077831       14.0866138173       10.2854736763
  C        12.4723540544       12.9107808952       10.9897273674
  C        11.7148056189       12.1775480426       11.9157748656
  C        12.2813864044       11.0950910825       12.5842059744
  C        13.6202269430       10.7214246371       12.3524384319
  C        14.3582480834       11.4370361388       11.3917137381
  C        13.7928235483       12.5182105544       10.7190178441
  C        14.2538223150        9.6246618911       13.1228490660
  C        14.2525746683        9.6446325860       14.5446895731
  C        13.7427310545       10.7536032143       15.2917502826
  C        22.5105584603        3.2435822707        5.7530214244
  C        23.2231138383        4.3486768578        5.0521764022
  C        24.2183749070        4.0684547145        4.1044290545
  C        24.8433526776        5.1081221753        3.4210589634
  C        24.4881209999        6.4493836790        3.6657816933
  C        23.5210380962        6.7211735045        4.6504950095
  C        22.8914761158        5.6833466799        5.3322197116
  C        25.0924681333        7.5560298549        2.8904527550
  C        25.0661057137        7.5494648190        1.4690708010
  C        24.3643347905        6.5505430702        0.7221215375
  C        38.3022743682       31.9301471200        5.8495439487
  C        37.5713889737       30.8411171405        5.1407532330
  C        36.6097329654       31.1458050798        4.1653279469
  C        35.9909597477       30.1260995208        3.4477052552
  C        36.3194661158       28.7768689241        3.6838935608
  C        37.2515083303       28.4795193579        4.6958535694
  C        37.8741683488       29.4979993547        5.4125370679
  C        35.7158784015       27.6861848322        2.8863689157
  C        35.7449139686       27.7030959431        1.4650040366
  C        36.4503817383       28.7060783054        0.7281576056
  C        25.6899306792        8.6195310079        0.7502867698
  C        25.6877417106        8.6309539164        3.5624718437
  C        38.3288471865       31.9624537311       10.1562918211
  C        37.6068123470       30.8900747092       10.8987493228
  C        36.6766780727       31.2004157405       11.9025796961
  C        36.0652005573       30.1830631575       12.6324460146
  C        36.3697214529       28.8301477572       12.3819146074
  C        37.2778841934       28.5297282676       11.3482719407
  C        37.8914330341       29.5436048717       10.6196029078
  C        35.7596142677       27.7322386823       13.1659294888
  C        35.7672727794       27.7266976275       14.5879095928
  C        36.4606172338       28.7176453355       15.3514417139
  C        46.1356306230       26.6208093620       15.2815047527
  C        46.0878778584       26.5801063408       12.4736111089
  C        22.4606232849        3.2558732296       10.2571870111
  C        23.1540907119        4.3653007163       10.9794295382
  C        24.1570701727        4.0804651579       11.9195717205
  C        24.7840436887        5.1115401262       12.6149772031
  C        24.4280491583        6.4568697935       12.3927531494
  C        23.4483103439        6.7350438026       11.4209304920
  C        22.8167250316        5.7041952000       10.7259870217
  C        25.0571959863        7.5554042436       13.1675852444
  C        25.0484831546        7.5486806840       14.5902690307
  C        24.3540217845        6.5513971661       15.3453086461
  C        26.6264082169       17.8644787803        5.7817101696
  C        25.3181108724       17.9107034802        5.0579246984
  C        25.0614867805       18.9003355907        4.0959424406
  C        23.8477060821       18.9205777072        3.4112640885
  C        22.8529566334       17.9543623167        3.6658236612
  C        23.1056329760       16.9879891612        4.6579008771
  C        24.3213982654       16.9623143810        5.3400467166
  C        21.5793626414       17.9385538531        2.9016301068
  C        21.5787851034       17.9118476598        1.4789803999
  C        22.7837480332       17.7817860894        0.7186883598
  C        34.4290769618       17.2198528313        5.9174175108
  C        35.7213174447       17.1519175781        5.1736563422
  C        35.9182941965       16.1785968973        4.1817591752
  C        37.0993627849       16.1532160185        3.4447763351
  C        38.1160678030       17.0998252098        3.6792313651
  C        37.9218119139       18.0523810206        4.6978679586
  C        36.7386753548       18.0828683496        5.4323997276
  C        39.3701269752       17.1000148647        2.8911416058
  C        39.3646403337       17.1062443977        1.4689567598
  C        38.1572520337       17.2259734416        0.7111597350
  C        20.3321462685       17.9304897748        0.7702190665
  C        20.3541642911       17.9440626257        3.5835360937
  C        34.4463831598       17.2363480896       10.1865650134
  C        35.7490249328       17.1347103841       10.9063344884
  C        35.9519026409       16.1549779289       11.8895778631
  C        37.1415216909       16.1231824816       12.6131361193
  C        38.1564170808       17.0705925958       12.3745322822
  C        37.9595093777       18.0231029003       11.3570640810
  C        36.7695707334       18.0595603438       10.6361471925
  C        39.4045521908       17.0858275318       13.1698037352
  C        39.3824459724       17.0997218906       14.5913836029
  C        38.1656697966       17.2209030412       15.3342436466
  C        35.1351770595       26.6482019983       15.2914922464
  C        35.1701256618       26.6615317328       12.4824092300
  C        26.5707298277       17.8268346209       10.3249547065
  C        25.2567412503       17.8696652792       11.0328507068
  C        24.9956628268       18.8692568837       11.9823388203
  C        23.7779807245       18.8934552600       12.6564955740
  C        22.7923174965       17.9178130510       12.4054477469
  C        23.0483950225       16.9429401841       11.4242196130
  C        24.2666657953       16.9167054578       10.7480406401
  C        21.5287473763       17.8988609776       13.1784096685
  C        21.5528816346       17.8897188290       14.6000077942
  C        22.7708715314       17.7708270492       15.3422452939
  C        14.0467600061       17.8285414083       10.2894048286
  C        15.3509374594       17.8847429647       11.0156062803
  C        15.6079463252       18.8874955117       11.9636814233
  C        16.8167152777       18.9075581626       12.6571308270
  C        17.8031290708       17.9276108474       12.4250617194
  C        17.5507741186       16.9489832015       11.4449941581
  C        16.3415373955       16.9244041305       10.7530073572
  C        19.0723646605       17.9098322463       13.1942297380
  C        19.0714810012       17.9084402071       14.6168436479
  C        17.8645727332       17.8124991505       15.3785531892
  C        46.8031833013       17.2168136925       10.1581720554
  C        45.5114431164       17.1478450273       10.9015960046
  C        45.3083270056       16.1647330149       11.8827006972
  C        44.1255083534       16.1367388254       12.6169213657
  C        43.1145517489       17.0917894697       12.3930269307
  C        43.3148049325       18.0544593524       11.3849364324
  C        44.4984971096       18.0862966674       10.6513586384
  C        41.8607360412       17.0937906605       13.1821492207
  C        41.8669068756       17.0936224145       14.6044694538
  C        43.0758487814       17.1910745927       15.3628323816
  C        20.3184296750       17.9183144384       15.3250722548
  C        20.2965377749       17.8888392456       12.5119117611
  C        46.7836418181       17.2309858166        5.8878803983
  C        45.4803552586       17.1225479818        5.1711982022
  C        45.2631901804       16.1211797818        4.2122710388
  C        44.0749431731       16.0892445953        3.4861651932
  C        43.0728315413       17.0556285973        3.7008973731
  C        43.2807509939       18.0272667642        4.6979587396
  C        44.4701211123       18.0654523387        5.4194243534
  C        41.8254647532       17.0720473244        2.9040157372
  C        41.8489284304       17.0810282451        1.4825312126
  C        43.0674006985       17.1821774304        0.7397983077
  C        46.1534172794       26.6372371199        0.7262633097
  C        46.1624129382       26.6559811958        3.5359074567
  C        14.0459378921       17.8323763572        5.7091434655
  C        15.3675987754       17.9083606350        5.0198874227
  C        15.6406944100       18.9240890881        4.0914878494
  C        16.8701047478       18.9626761282        3.4373919646
  C        17.8542693658       17.9847027949        3.6857642034
  C        17.5881644539       16.9982718488        4.6528270362
  C        16.3607742355       16.9591375502        5.3104101523
  C        19.1215961508       17.9597862056        2.9166227749
  C        19.0970984064       17.9329297053        1.4951321081
  C        17.8770962490       17.8234653523        0.7547546817
  C        28.8082697001       14.0925145608       10.3925330408
  C        28.1933336020       12.9207234812       11.0808339719
  C        28.9132326582       12.1842453164       12.0331069978
  C        28.3130687402       11.1090407512       12.6832838995
  C        26.9786968351       10.7482524020       12.4070463538
  C        26.2803806781       11.4663734312       11.4197857822
  C        26.8786660017       12.5407961741       10.7666295712
  C        26.3088769507        9.6684361361       13.1670216765
  C        26.2958341560        9.6939453733       14.5881057821
  C        26.8007067050       10.8054593887       15.3351631422
  C        32.1786664665       21.2416798253       10.1455600044
  C        32.7720286179       22.4095316686       10.8626015243
  C        32.0205127843       23.0912462167       11.8321136775
  C        32.5896726796       24.1312173249       12.5606794599
  C        33.9259528070       24.5171096909       12.3403275765
  C        34.6599789173       23.8545595288       11.3386050627
  C        34.0930866148       22.8090980065       10.6120328560
  C        34.5534120859       25.5927035130       13.1415031503
  C        34.5429515494       25.5649758715       14.5631416062
  C        34.0315019254       24.4507925791       15.3009015210
  C        25.6852988562        8.6157770740       15.3056370236
  C        25.6727761991        8.6180347548       12.4925435766
  C        32.1001532441       21.2272358847        5.8833970517
  C        32.6886941595       22.3807344617        5.1399200873
  C        31.9501571336       23.0476988538        4.1501008313
  C        32.5301311165       24.0766334015        3.4114908875
  C        33.8620923122       24.4706520153        3.6465489630
  C        34.5829427942       23.8185505641        4.6651931846
  C        34.0082005670       22.7830303868        5.3976244190
  C        34.5013698509       25.5524594202        2.8621478890
  C        34.5148557869       25.5450782661        1.4402543080
  C        34.0169745946       24.4419738459        0.6777399308
  C        40.6109557204       17.0776763313        0.7593702941
  C        40.5946382562       17.0988988651        3.5695516989
  C        28.7325828895       14.0607891148        5.8233595174
  C        28.1214376142       12.9166704147        5.0847718612
  C        28.8634894314       12.2062281262        4.1286407414
  C        28.2806915954       11.1538554924        3.4267915309
  C        26.9413096737       10.7829664719        3.6598471079
  C        26.2164645105       11.4790739846        4.6451501079
  C        26.7965052181       12.5343957041        5.3462299740
  C        26.3003639272        9.6931193677        2.8858250846
  C        26.2939892079        9.7060548587        1.4643148289
  C        26.7986489889       10.8122709042        0.7112170242
  C        18.1353843539        3.1810182815       10.3172619580
  C        17.4060273395        4.2782238528       11.0157948421
  C        16.3904961247        3.9998541276       11.9435236907
  C        15.7427497722        5.0398395667       12.6069788744
  C        16.0944785358        6.3835851010       12.3671184479
  C        17.0836241984        6.6531015132       11.4031024794
  C        17.7327373646        5.6157623789       10.7380805906
  C        15.4701975248        7.4912929552       13.1301571342
  C        15.4854974690        7.4905957505       14.5518670603
  C        16.1870840562        6.4970126463       15.3050511428
  C        42.9458830264       31.8594913300       10.0729652331
  C        43.6462899454       30.7718541940       10.8168436919
  C        44.5917988435       31.0931729448       11.8029479726
  C        45.1975230568       30.0876175018       12.5505738730
  C        44.8711220910       28.7345418960       12.3356983602
  C        43.9453400461       28.4202090734       11.3224368652
  C        43.3365068916       29.4253552994       10.5744216368
  C        45.4887025175       27.6552487993       13.1388909290
  C        45.4929330121       27.6809366061       14.5605808540
  C        44.8058540930       28.6889765634       15.3072182618
  C        14.8565600140        8.5631042006       15.2642286136
  C        14.8749510011        8.5630844226       12.4515641218
  C        42.9464204445       31.9614794710        5.8088961147
  C        43.6917298944       30.8853873492        5.0955565427
  C        44.6561935909       31.1913061709        4.1231158386
  C        45.2777582843       30.1717217707        3.4054418642
  C        44.9540939702       28.8213780623        3.6431436660
  C        44.0207697987       28.5237115004        4.6540799083
  C        43.3924656792       29.5404685355        5.3662289769
  C        45.5631346292       27.7240069682        2.8578731188
  C        45.5334422283       27.7173779727        1.4365732315
  C        44.8271300133       28.7076092946        0.6836117881
  C        35.1225428162       26.6370865322        0.7364717201
  C        35.1131120035       26.6095500372        3.5464300004
  C        18.1484909351        3.2470375645        5.7066000725
  C        17.4298732910        4.3438406666        4.9973655578
  C        16.4148132860        4.0525624337        4.0736271692
  C        15.7664969561        5.0831966517        3.3982600387
  C        16.1210025112        6.4284546008        3.6211394029
  C        17.1121960357        6.7118349096        4.5785955492
  C        17.7598693756        5.6829245757        5.2583530616
  C        15.4905359312        7.5241504279        2.8486894330
  C        15.4964903372        7.5075159249        1.4275582923
  C        16.1932860738        6.5058341648        0.6808638777
  H        10.6723636020       12.4658057817        3.9046939890
  H        11.6945656661       10.5509581476        2.6628002247
  H        15.3917789065       11.1689076730        4.7719532370
  H        14.3513249913       13.0717416441        6.0171373334
  H        13.3762497878       11.6312477888        1.2013306666
  H        50.3228530029       22.7485143014        3.9870872478
  H        49.3197164621       24.6229586873        2.6810193677
  H        45.6420070956       24.1608214955        4.8634448680
  H        46.6629230287       22.2899181786        6.1717398248
  H        47.6298680949       23.5758529009        1.2461831438
  H        14.8719992992        8.5883531034        4.6085732236
  H        50.2871668732       22.7028331816       12.0600129127
  H        49.2692107912       24.5757106789       13.3600904993
  H        45.6102279789       24.1087291528       11.1464497578
  H        46.6523252507       22.2534118882        9.8321788446
  H        47.6078281585       23.5518248503       14.7968279252
  H        40.6414146315       17.0693708713       11.4165767337
  H        48.6870809325       14.0950607708        7.8000224883
  H        10.6813057356       12.4665754901       12.0930923715
  H        11.6895728701       10.5246457962       13.2968444573
  H        15.3937278819       11.1592574184       11.2058897712
  H        14.3651923068       13.0876720156        9.9905805682
  H        13.3759412465       11.6222206998       14.7530914790
  H        47.9300914522       14.2187930808        9.7106754657
  H        47.7800120216       14.3740421323        6.4953080092
  H        49.0830476843       18.5519983451       10.8671511939
  H        10.4158923210       14.1344068271        7.9987109214
  H        24.4795982181        3.0298787146        3.9139790316
  H        25.6156096064        4.8915071519        2.6861476511
  H        23.2399803186        7.7540809786        4.8451520970
  H        22.1224155446        5.8828207033        6.0744052184
  H        23.8026162571        5.7936573479        1.2617613952
  H        36.3722618397       32.1891848812        3.9717631710
  H        35.2448421222       30.3654731100        2.6931987685
  H        37.5125450534       27.4403007314        4.8848675106
  H        38.6194549727       29.2767833427        6.1728546634
  H        37.0156016175       29.4555367303        1.2744606845
  H        25.7208602409        8.6138636396        4.6503349046
  H        36.4537819122       32.2449667776       12.1080582081
  H        35.3382353641       30.4290192699       13.4033184985
  H        37.5248812167       27.4891541563       11.1484252840
  H        38.6149420689       29.3168600332        9.8403231797
  H        37.0348321379       29.4755373498       14.8263537573
  H        46.1092171028       26.5874331302       11.3855732716
  H        44.6682338991       35.1161392238        7.8139515323
  H        24.4358570326        3.0425496613       12.0869575453
  H        25.5653095886        4.8838892884       13.3370360002
  H        23.1619929078        7.7691833134       11.2404336401
  H        22.0443503250        5.9158587555        9.9901778176
  H        23.7838337603        5.7956172285       14.8129495741
  H        44.9537113951       34.3902885669        9.6951376302
  H        44.9017076649       34.2067366344        6.4906574086
  H        40.6660090936       33.2089703552       10.8530934253
  H        23.1503549041        1.9577334399        8.0052112793
  H        25.8260181959       19.6483762480        3.8993538166
  H        23.6550314422       19.6944475924        2.6712497162
  H        22.3500194597       16.2327748139        4.8646523346
  H        24.5261275287       16.2020231471        6.0901996258
  H        23.7242318412       17.6594686245        1.2481552724
  H        35.1285406598       15.4535278469        3.9990017799
  H        37.2505175723       15.3909182127        2.6836017307
  H        38.6982073509       18.7915908005        4.8840428100
  H        36.5732296840       18.8331286291        6.2021934690
  H        37.2179644399       17.3550726974        1.2413286574
  H        20.3607629512       17.9874683834        4.6712826072
  H        35.1582531682       15.4376474228       12.0857535030
  H        37.2967885987       15.3607054653       13.3732781563
  H        38.7359030297       18.7612818691       11.1669991998
  H        36.5969667421       18.8141375233        9.8725491836
  H        37.2327053523       17.3451705071       14.7919358535
  H        35.1446710450       26.6866139765       11.3946482414
  H        28.5053290848       21.0829471188        7.9723385817
  H        25.7595030532       19.6196523437       12.1736233046
  H        23.5748360612       19.6732341539       13.3873485211
  H        22.2958982139       16.1827740764       11.2245256778
  H        24.4801879386       16.1525698378       10.0044272760
  H        23.7016164831       17.6401624108       14.7983717172
  H        29.0029125633       21.7218250235        9.7609904722
  H        29.1682544208       21.7383041020        6.6253221339
  H        32.0909582636       18.5678758424       10.9873020304
  H        27.4022519457       19.0759831799        8.0796064439
  H        14.8499774165       19.6470397072       12.1418069002
  H        17.0119243987       19.6917260471       13.3854939989
  H        18.3015798145       16.1843168369       11.2564519530
  H        16.1357144366       16.1555052152       10.0121149378
  H        16.9217369352       17.6974282113       14.8517557661
  H        46.0947625410       15.4357305689       12.0633401366
  H        43.9701139567       15.3664249546       13.3691166151
  H        42.5428875742       18.8003124374       11.2068635234
  H        44.6679446007       18.8442084393        9.8900315497
  H        44.0172735821       17.3052651886       14.8330724248
  H        20.2903867369       17.9188353570       11.4237767847
  H        46.0414055072       15.3817754494        4.0373323526
  H        43.9105795840       15.3114851171        2.7435393731
  H        42.5129442280       18.7784683792        4.8710866919
  H        44.6502782457       18.8347865911        6.1663074935
  H        44.0024587662       17.2883458703        1.2821400234
  H        46.1992337629       26.6824672357        4.6233553632
  H        52.7411587104       21.0626325163        8.1946597847
  H        14.8795465839       19.6770136053        3.8990360650
  H        17.0807309814       19.7532234808        2.7203185346
  H        18.3394062666       16.2369231875        4.8525511092
  H        16.1401433690       16.1844878838        6.0407765848
  H        16.9436501508       17.7167137118        1.2991360593
  H        52.3224462510       21.6732667028        6.2942833186
  H        52.0132340495       21.7020645454        9.4956578439
  H        49.0670359304       18.6074900586        5.2041641028
  H        13.2475030815       19.0163207735        7.9775158742
  H        29.9400832344       12.4699591554       12.2497395842
  H        28.8729558782       10.5354081998       13.4187260530
  H        25.2491429158       11.1979398739       11.1997591877
  H        26.3377481197       13.1164454108       10.0195510712
  H        27.1648041120       11.6743164111       14.7953391726
  H        30.9940764524       22.7796029088       12.0097598091
  H        32.0022339815       24.6592629365       13.3086461899
  H        35.6942691444       24.1434806351       11.1633072580
  H        34.6653967355       22.2712939039        9.8596492403
  H        33.6757680339       23.5824266130       14.7537021661
  H        25.7034785171        8.5994247276       11.4045497631
  H        30.9225086897       22.7415976845        3.9682250892
  H        31.9509491542       24.5948222782        2.6502188899
  H        35.6137698075       24.1121174915        4.8525828024
  H        34.5703607867       22.2569149810        6.1656955135
  H        33.6502902741       23.5665259335        1.2060400345
  H        40.5884610156       17.0664447646        4.6574188026
  H        32.5185373342       14.1483654452        8.2587039090
  H        29.9000118096       12.4876419089        3.9568341535
  H        28.8624637591       10.5993076885        2.6936367829
  H        25.1803031006       11.2041306400        4.8314282313
  H        26.2338883625       13.0888864787        6.0936615395
  H        27.1599299091       11.6862347618        1.2454364265
  H        33.2970588557       14.1827468321        6.4348337427
  H        33.4065670276       14.4001193333        9.6113292577
  H        32.1557859619       18.5674773555        5.2149593369
  H        30.2273319039       14.1902574503        8.0813332728
  H        16.1185466980        2.9633457534       12.1300594397
  H        14.9534224701        4.8204635248       13.3227737482
  H        17.3658771070        7.6859899445       11.2097994974
  H        18.5145625458        5.8184286234       10.0100131774
  H        16.7536874267        5.7396964569       14.7715714575
  H        44.8280890332       32.1402497404       11.9771451396
  H        45.9373713684       30.3413574596       13.3065381849
  H        43.6826676407       27.3781384348       11.1522910563
  H        42.5999635221       29.1899764310        9.8097008575
  H        44.2304828629       29.4367369301       14.7689251323
  H        14.8511671224        8.5463321721       11.3633444337
  H        44.8996766778       32.2339888155        3.9316067544
  H        46.0245739126       30.4129540820        2.6521187953
  H        43.7639351520       27.4839703117        4.8457538470
  H        42.6461401708       29.3176177664        6.1248278928
  H        44.2685877681       29.4704788595        1.2181806545
  H        35.0730480560       26.6202494604        4.6340114130
  H        36.6050791797       35.1341110903        8.1805364325
  H        16.1438357039        3.0129789039        3.9037807439
  H        14.9742771695        4.8563570594        2.6880567978
  H        17.3955522066        7.7473183155        4.7556364321
  H        18.5425942145        5.8933978979        5.9832702654
  H        16.7647517741        5.7556192713        1.2192999722
  H        36.2784941131       34.4826075809        6.2731629314
  H        36.3806763767       34.2092604576        9.4996004040
  H        40.5803275625       33.2025077669        5.1536066172
  H        17.4706135760        1.9474380673        7.9741188746
  H        29.0063004297       19.2980122711       12.4670149550
  H        29.4813176835       19.5099891225        3.5214913777
  H        30.5221070705       15.5206777124        3.9544496716
  H        31.1292395487       15.5485749203       12.4927397792
  H        27.7910243656       17.9639125583       14.5229550388
  H        29.1064062048       15.2417223155       14.3931130815
  H        31.0661866706       19.9683632573        1.4308272662
  H        32.2171478056       15.9770049743        1.9346666059
  H        18.8530542506        0.8688818217       12.3352103619
  H        40.5282038404       35.2291620126        3.9520441829
  H        42.3238778866       34.4187200271        3.5905384691
  H        22.0876714356        0.6922089934       12.3516463944
  H        11.5970202287       18.7129707795       12.3822972215
  H        52.2649678900       18.4310500021        3.6775627608
  H        49.2550089151       16.4770403933        3.5846171763
  H        10.1509256921       15.7982579375       12.2925533177
  H        50.8500337793       17.6924868966        3.9542392206
  H        10.0463442579       17.3946320029       12.0519719785
  H        20.2141846354        0.0021460952       12.0420790687
  H        39.1838843666       36.1247232784        3.6864776394
 Ni        30.8264829131       17.7355565407        2.9109260085
 Ni        30.7743382050       16.4040894439       -0.1677491010
 Ni        29.7996275495       18.5314334734       -0.1667579348
 Ni        30.0642654704       17.4422178689       13.2463118376
  O        10.6499313856       14.3651386782        5.4858312815
  O        12.6131847607       14.6575317119        6.5839093883
  O        49.1477784444       16.8459639076        7.9897407978
  O        50.3502444606       20.9358913323        5.6481127744
  O        48.3485304778       20.5932628300        6.6659610397
  O        11.0515085805       17.0538944133        6.5006994554
  O        50.3209591520       20.8816736235       10.4068264719
  O        48.3467131460       20.5866886842        9.3270802825
  O        49.5436357896       18.2484197479       10.0682146096
  O        12.3590063191       18.6246155678        7.9997190882
  O        48.6931864487       14.1486418624        6.7512794075
  O         8.2098870281       14.2103971684        9.3225406503
  O        10.7353907023       14.5067312821       10.6643219292
  O        12.5718385127       14.5828334655        9.3284655410
  O        22.8443469556        2.0427479487        5.4873424348
  O        21.6049966651        3.5919133224        6.5901788355
  O        42.0582206293       34.1373519837        7.9790687221
  O        37.9817658904       33.1384587472        5.5726775849
  O        39.2180689452       31.5762813177        6.6665954795
  O        20.3084150587        1.0395685952        6.5020658062
  O        38.0248239573       33.1862104707       10.4150080917
  O        39.2190809187       31.5837384388        9.3265177434
  O        40.6522969335       33.7693644130       10.0602702984
  O        18.2552831370        1.3762480411        7.9967753811
  O        44.6222364435       35.1005202942        6.7587524548
  O        24.2054166936        0.0000275795        9.3208174430
  O        22.7529809486        2.0580230920       10.5838621731
  O        21.6242269039        3.5959308336        9.3422739194
  O        27.5026666528       18.7550409323        5.4963179902
  O        26.7663930142       16.9359560037        6.6530560417
  O        30.6664093855       19.4066217569        8.0669193843
  O        33.5505881004       16.3313966617        5.6582228124
  O        34.2811255490       18.1842649095        6.7435893432
  O        29.5723530907       17.0668801934        6.5830796212
  O        33.5620977171       16.3396403688       10.4158731882
  O        34.3033265349       18.2415372786        9.4098775370
  O        31.6513030515       18.3159655775       10.1582869358
  O        30.3232329820       15.1566820779        8.0880593249
  O        28.5546833435       21.0334752605        6.9017193283
  O        28.5129975012       20.9578718875        9.4117917340
  O        27.4562774455       18.6793753887       10.6583420166
  O        26.6940944733       16.9289965739        9.4128387539
  O        13.1489236071       18.6928946870       10.5875638240
  O        13.9195459890       16.9162757376        9.4051878000
  O        50.5958443552       19.3501086355        8.0204472275
  O        47.6833092882       16.3269477662       10.4172544589
  O        46.9504144915       18.1754944885        9.3256582621
  O        11.0697488302       17.0155404208        9.4896427868
  O        47.6752414007       16.3358467891        5.6529147161
  O        46.9253108486       18.2357768198        6.6634119969
  O        49.5684558750       18.3177059665        5.9823053307
  O        10.3186317933       15.1002634960        7.9970859682
  O        52.6707540701       21.0278807159        9.2418191623
  O        12.1468049345       20.8911801413        6.6732663086
  O        13.1081800813       18.6137025469        5.3256305988
  O        13.9573595712       16.9871693666        6.6653463740
  O        29.9926509382       14.4419169016       10.7318207164
  O        28.0893774611       14.6539856491        9.4948317685
  O        32.1376989049       16.8617487066        8.0890669475
  O        30.9647107727       20.9521384960       10.4098256278
  O        32.9464524094       20.6029622389        9.3401923722
  O        29.5668967387       17.0761903331        9.5754157806
  O        30.8693744706       20.9428600241        5.6615780288
  O        32.8762960531       20.5867753608        6.6655350331
  O        31.6821446889       18.2547713420        6.0017120757
  O        28.2875247948       18.6769835631        8.0775417819
  O        32.4917130671       14.2132740800        9.3318340423
  O        32.4082213797       14.2112326675        6.8256977822
  O        29.9092221550       14.4315354454        5.4916533926
  O        28.0359819056       14.5869082630        6.7559918097
  O        17.8892039675        1.9666291145       10.6628237497
  O        18.9561704019        3.5271272971        9.4080027383
  O        39.1686800735       34.1388559285        7.9971747215
  O        43.2802232245       33.0589630699       10.3317027560
  O        42.0345261909       31.5064738885        9.2416280108
  O        20.3176462940        1.0366864172        9.4802926619
  O        43.2760659192       33.1825034248        5.5748983973
  O        42.0052749125       31.5841073614        6.5830225543
  O        40.5789955389       33.7749828092        5.9358697388
  O        22.3672506011        1.3845034967        7.9980080503
  O        36.6727113174       35.0998156368        9.2332218228
  O        16.4455365302        0.0643374552        6.6683319945
  O        17.9364807835        2.0433947116        5.3263642438
  O        18.9189769433        3.5931415015        6.6659307485
  O        29.8946392629       18.8441113207        4.1034584899
  O        29.7760102349       18.9134536539       11.9982633887
  O        31.1882627377       16.2047326952        4.1594356897
  O        31.2983533698       16.4073761778       12.0546124974
  O        31.7249866692       16.7016835550        1.5077418389
  O        29.9940787712       15.6078280835       14.2440244438
  O        30.4083794060       19.2556560687        1.4897620815
  O        28.5981095863       18.4667019938       14.3223608251
  O        39.4569629535       35.2440421676        4.0019266286
  O        19.1409904703        0.0043714266       11.9905952406
  O        41.9695411895       35.1726346672        4.0871434867
  O        21.6913147567       -0.0691963549       11.8959414208
  O        51.3650683449       18.6142897413        4.0054324398
  O        10.7511268226       18.7472418892       11.9049052339
  O        50.0795105127       16.4127724196        4.0917768846
  O         9.5248819861       16.4830223959       11.9912108420
 Zr         9.2967031213       16.0528916855        6.1823908940
 Zr        49.8363698926       16.0068022629        9.7465201432
 Zr        22.0732413332        0.0296321866        6.1891311115
 Zr        42.4609712386       35.1534549912        9.8010782073
 Zr        29.6064836746       19.0899395969        6.3050312781
 Zr        29.5803988647       19.1752963099        9.8615432876
 Zr        11.0380325151       19.0519449285        9.8276894937
 Zr        11.0438835238       19.1547850796        6.2511075330
 Zr        31.3469102558       16.1059275228        9.8974679886
 Zr        31.4000776184       16.0108254179        6.3057574628
 Zr        18.6010623083       -0.0012794269        9.7632652383
 Zr        18.5065298529       -0.0074437290        6.2136764674
 Zr        12.3023001518       16.3237326197        7.9902438966
 Zr        48.6158344720       18.8328213602        8.0102489782
 Zr        20.3148276342        2.4732737982        7.9906681488
 Zr        40.6436162956       32.6871218099        7.9782876600
 Zr        28.3442885301       16.3427834766        8.0844456576
 Zr        32.6343180706       18.8362799470        8.0625711269
  H        31.1098585188       17.8589828790       14.7709230379
  H        29.3500782998       17.0292184829        0.5113004666
