     570
 i =      344, E =     -4745.5725163440
  C        11.8586318123       14.0536571860        5.7415860563
  C        12.4562019030       12.8906746061        5.0232496599
  C        11.7045197369       12.1717523841        4.0815927302
  C        12.2808766831       11.1095344670        3.3892232269
  C        13.6214438649       10.7397524113        3.6169841581
  C        14.3546670740       11.4433930637        4.5903568825
  C        13.7817666125       12.5083785034        5.2818556114
  C        14.2610033200        9.6490819893        2.8435989411
  C        14.2563915259        9.6569979926        1.4218901944
  C        13.7432181090       10.7591177705        0.6679731304
  C        49.1266853742       21.2331564419        5.8797288387
  C        48.5499111113       22.4010585056        5.1525993714
  C        49.3000618169       23.0685590767        4.1718139043
  C        48.7331467739       24.1076783791        3.4385690799
  C        47.4025023545       24.5091186448        3.6669672969
  C        46.6713852003       23.8600308704        4.6802253663
  C        47.2338387128       22.8151403596        5.4096171296
  C        46.7723477731       25.5868876796        2.8696891289
  C        46.7614457534       25.5573660875        1.4479146442
  C        47.2614300853       24.4422938388        0.7044164831
  C        14.8603262058        8.5706494480        0.7086324841
  C        14.8917144303        8.5970945985        3.5202585481
  C        49.1131264634       21.2033762365       10.1452885173
  C        48.5277336008       22.3647418927       10.8724326988
  C        49.2671204904       23.0256961924       11.8650763299
  C        48.6907947295       24.0602466534       12.5965504519
  C        47.3602698482       24.4567829147       12.3585560498
  C        46.6396596815       23.8115842487       11.3353649100
  C        47.2131972886       22.7756668032       10.6035660225
  C        46.7219036494       25.5318005511       13.1495896214
  C        46.7337114837       25.5282226909       14.5712900058
  C        47.2491700575       24.4290103534       15.3276538483
  C        40.6162429148       17.0740426754       15.3143187967
  C        40.6299796613       17.0979425343       12.5041942551
  C        11.8828993218       14.0866310387       10.2854509260
  C        12.4722133521       12.9107135770       10.9896640080
  C        11.7146912187       12.1775718684       11.9158041830
  C        12.2812493603       11.0951051429       12.5842529956
  C        13.6200198542       10.7212875754       12.3523726055
  C        14.3579968162       11.4368095931       11.3915539202
  C        13.7926135442       12.5179935792       10.7188425072
  C        14.2536476562        9.6245682461       13.1228160454
  C        14.2525032694        9.6445955743       14.5446582302
  C        13.7426438732       10.7535617373       15.2917153568
  C        22.5099075672        3.2436725894        5.7527445290
  C        23.2209980420        4.3495987681        5.0512080630
  C        24.2153598770        4.0706962254        4.1021894041
  C        24.8389659833        5.1113192463        3.4189238216
  C        24.4833788054        6.4522003000        3.6652322347
  C        23.5168999877        6.7226917542        4.6508369909
  C        22.8886436434        5.6838687886        5.3323206696
  C        25.0870562921        7.5596709550        2.8903411540
  C        25.0588967019        7.5544017915        1.4690090974
  C        24.3556531581        6.5565271080        0.7219506653
  C        38.3025522633       31.9302098857        5.8491031153
  C        37.5726454454       30.8414349751        5.1394262760
  C        36.6121350711       31.1462758741        4.1628966758
  C        35.9942613673       30.1266498055        3.4444231948
  C        36.3223502362       28.7773958539        3.6810822090
  C        37.2534231515       28.4799736692        4.6939363871
  C        37.8753188876       29.4983083612        5.4113700982
  C        35.7187221925       27.6864003402        2.8841672228
  C        35.7473829944       27.7021479697        1.4628210751
  C        36.4524361881       28.7045739119        0.7248280696
  C        25.6833276353        8.6241974717        0.7504134352
  C        25.6845486678        8.6332672792        3.5625505791
  C        38.3282518397       31.9617775370       10.1560591147
  C        37.6057320001       30.8886506063       10.8971756638
  C        36.6751208251       31.1975450193       11.9010865562
  C        36.0639432674       30.1792542255       12.6299978662
  C        36.3691133968       28.8264838966       12.3789262162
  C        37.2772770783       28.5275235061       11.3448076048
  C        37.8905123328       29.5423209864       10.6170068719
  C        35.7603084535       27.7279555036       13.1635211752
  C        35.7686607319       27.7233906958       14.5856028803
  C        36.4621933971       28.7150410044       15.3480827485
  C        46.1357650516       26.6208989838       15.2814136096
  C        46.0878839876       26.5801051209       12.4735372575
  C        22.4601393230        3.2560612104       10.2573541796
  C        23.1524954617        4.3663911662       10.9798738018
  C        24.1550314570        4.0830299157       11.9208860581
  C        24.7806153068        5.1151212325       12.6161964394
  C        24.4238391254        6.4600609538       12.3928063405
  C        23.4445014879        6.7367800798       11.4201952428
  C        22.8141787259        5.7048978191       10.7255661287
  C        25.0519253457        7.5594477528       13.1675549945
  C        25.0414858807        7.5537036729       14.5902387899
  C        24.3454901213        6.5573325222       15.3451478550
  C        26.6235915894       17.8621205953        5.7818361901
  C        25.3145737168       17.9106421772        5.0611573654
  C        25.0631378660       18.8967123923        4.0941482959
  C        23.8495527798       18.9182012554        3.4092906362
  C        22.8513558253       17.9563994737        3.6675376401
  C        23.0997194969       16.9935599242        4.6640986319
  C        24.3146501163       16.9671436276        5.3475720844
  C        21.5784755860       17.9404966913        2.9024628406
  C        21.5784432805       17.9125150603        1.4798521335
  C        22.7836898526       17.7812661143        0.7201623005
  C        34.4227982155       17.2194583619        5.9131515576
  C        35.7149415283       17.1508835902        5.1705196886
  C        35.9096186395       16.1820437357        4.1738389420
  C        37.0925560702       16.1549974068        3.4400027873
  C        38.1127201190       17.0963450574        3.6805713648
  C        37.9202239303       18.0448527834        4.7035936106
  C        36.7358466798       18.0763356661        5.4360795841
  C        39.3671075251       17.0965549451        2.8926089461
  C        39.3612912296       17.1023473375        1.4701281102
  C        38.1536030682       17.2218255520        0.7127613597
  C        20.3321569023       17.9312204450        0.7704300397
  C        20.3528710097       17.9466318636        3.5836318322
  C        34.4361207904       17.2389774783       10.1906037124
  C        35.7368356682       17.1356467984       10.9140150624
  C        35.9428592352       16.1529984908       11.8938816116
  C        37.1341210732       16.1192324312       12.6150591232
  C        38.1489839260       17.0670150454       12.3771866825
  C        37.9492194049       18.0223576294       11.3628115653
  C        36.7576118353       18.0610427539       10.6447674347
  C        39.3988725451       17.0807537026       13.1705283433
  C        39.3777917264       17.0940592414       14.5922770028
  C        38.1615219802       17.2152904068       15.3358529387
  C        35.1372553424       26.6452962641       15.2905037348
  C        35.1713296481       26.6561120973       12.4811721136
  C        26.5738905304       17.8270506440       10.3251267224
  C        25.2607008129       17.8681895656       11.0358736088
  C        24.9969534211       18.8701349931       11.9822357595
  C        23.7791365088       18.8938643673       12.6565226885
  C        22.7950042613       17.9160231534       12.4077147163
  C        23.0536725346       16.9385899868       11.4297412917
  C        24.2724009826       16.9123913073       10.7542515149
  C        21.5304045706       17.8981341625       13.1793176208
  C        21.5537335633       17.8897297843       14.6008433547
  C        22.7712563800       17.7705297858       15.3437536995
  C        14.0470245251       17.8285857334       10.2893147110
  C        15.3517143459       17.8848967340       11.0152502072
  C        15.6094642212       18.8881520718       11.9625969390
  C        16.8185011165       18.9082773337       12.6557292700
  C        17.8046506432       17.9279214551       12.4241202068
  C        17.5515732102       16.9488142606       11.4447006523
  C        16.3420733032       16.9241984357       10.7530121725
  C        19.0739215313       17.9100738600       13.1935924964
  C        19.0724066810       17.9088960477       14.6163030117
  C        17.8651269110       17.8135988458       15.3775535326
  C        46.8017756553       17.2166660505       10.1582643230
  C        45.5090847965       17.1467442379       10.9009037730
  C        45.3053836440       16.1631775210       11.8816202241
  C        44.1219299415       16.1340048093       12.6150715934
  C        43.1098762476       17.0881933299       12.3914686960
  C        43.3106868380       18.0511288805       11.3835512237
  C        44.4950339630       18.0841881511       10.6506472963
  C        41.8556444825       17.0893569980       13.1809997138
  C        41.8623815131       17.0887159876       14.6036257365
  C        43.0715297099       17.1864836186       15.3617239031
  C        20.3189851401       17.9188563938       15.3252633188
  C        20.2985850653       17.8881885354       12.5119605346
  C        46.7829575355       17.2310317164        5.8874851433
  C        45.4795645985       17.1223682296        5.1706725544
  C        45.2621242007       16.1204817669        4.2122177480
  C        44.0736447844       16.0878130297        3.4863735325
  C        43.0710128610       17.0539044208        3.7005469074
  C        43.2793733997       18.0262317722        4.6969635917
  C        44.4689693285       18.0651727812        5.4182260173
  C        41.8229820671       17.0692349153        2.9041066211
  C        41.8456982828       17.0770471488        1.4824462404
  C        43.0636674803       17.1778326467        0.7387860498
  C        46.1534976896       26.6372942490        0.7261712124
  C        46.1623022812       26.6559406687        3.5358450216
  C        14.0456291568       17.8324014433        5.7091806211
  C        15.3671137300       17.9085373269        5.0195265068
  C        15.6394689804       18.9243009324        4.0909948100
  C        16.8687105114       18.9634382909        3.4366522376
  C        17.8532288272       17.9858974290        3.6850100015
  C        17.5878151375       16.9993159004        4.6520802248
  C        16.3605706097       16.9596288800        5.3098639272
  C        19.1206834102       17.9615208987        2.9161809909
  C        19.0967614496       17.9341880710        1.4947162231
  C        17.8771133859       17.8247886279        0.7537674023
  C        28.8093235628       14.0941142202       10.3912632805
  C        28.1930347703       12.9235449688       11.0818622900
  C        28.9166629464       12.1753946553       12.0222536708
  C        28.3144474860       11.1018790834       12.6739506424
  C        26.9750380999       10.7521637459       12.4082446551
  C        26.2726656722       11.4811167287       11.4320114021
  C        26.8722795129       12.5552730018       10.7794983741
  C        26.3045229734        9.6718467184       13.1675739650
  C        26.2911737150        9.6974721246       14.5884451394
  C        26.7978701927       10.8081979701       15.3354004568
  C        32.1799253152       21.2359246233       10.1457205998
  C        32.7736883611       22.4008651241       10.8665199694
  C        32.0218011041       23.0851693090       11.8340158785
  C        32.5912071585       24.1258592509       12.5615206883
  C        33.9280438617       24.5104867313       12.3420992812
  C        34.6626340703       23.8449161824       11.3426935918
  C        34.0957014448       22.7986981886       10.6172913971
  C        34.5552819891       25.5877177085       13.1417022319
  C        34.5448292138       25.5613610130       14.5634175434
  C        34.0334754590       24.4479406321       15.3023587783
  C        25.6787995692        8.6203551359       15.3058279678
  C        25.6684945580        8.6217734214       12.4926366330
  C        32.1027144687       21.2256227579        5.8782179857
  C        32.6898079607       22.3816380277        5.1390564424
  C        31.9536271038       23.0449507378        4.1451653507
  C        32.5337034254       24.0750666110        3.4086114213
  C        33.8637836852       24.4722638829        3.6480010830
  C        34.5824308337       23.8236281701        4.6705545924
  C        34.0072051532       22.7879332973        5.4021724772
  C        34.5037613769       25.5528283094        2.8625889965
  C        34.5176109344       25.5438560726        1.4405544158
  C        34.0194922873       24.4400108443        0.6792276861
  C        40.6073474663       17.0731728984        0.7597983853
  C        40.5922788509       17.0959078306        3.5701817201
  C        28.7338889289       14.0617268464        5.8212121836
  C        28.1250077355       12.9157958500        5.0844107582
  C        28.8656841033       12.2050141765        4.1274767956
  C        28.2808689583       11.1532938315        3.4261101481
  C        26.9412467363       10.7836836007        3.6602359507
  C        26.2179900932       11.4802281230        4.6463671706
  C        26.7998843996       12.5345860264        5.3471064653
  C        26.2976134480        9.6953345316        2.8860535945
  C        26.2893936488        9.7095521709        1.4645575602
  C        26.7953041062       10.8153861104        0.7114844064
  C        18.1352968328        3.1809093609       10.3172221541
  C        17.4059517637        4.2781310847       11.0158037225
  C        16.3905129553        3.9997378660       11.9436213056
  C        15.7427592845        5.0397153932       12.6070964550
  C        16.0943052011        6.3834774054       12.3670967167
  C        17.0833236947        6.6530017243       11.4029560008
  C        17.7324465564        5.6156818310       10.7379121490
  C        15.4700483071        7.4911943297       13.1301350841
  C        15.4854631427        7.4905707674       14.5518428780
  C        16.1870516480        6.4969909577       15.3050250779
  C        42.9459546461       31.8594528558       10.0728792528
  C        43.6463614131       30.7718531777       10.8167365763
  C        44.5919022681       31.0931735061       11.8028102293
  C        45.1976580246       30.0876254869       12.5504048777
  C        44.8711608195       28.7345584849       12.3356326750
  C        43.9453423778       28.4202214742       11.3224159171
  C        43.3364720775       29.4253585483       10.5744236763
  C        45.4887790249       27.6552856245       13.1388058624
  C        45.4930427444       27.6810080780       14.5604911724
  C        44.8060002397       28.6890738541       15.3071233988
  C        14.8565230612        8.5630825795       15.2641990909
  C        14.8747173011        8.5629418275       12.4515499971
  C        42.9464724454       31.9614215526        5.8089535265
  C        43.6916770459       30.8853693154        5.0954980364
  C        44.6562649856       31.1912992112        4.1231774118
  C        45.2777879640       30.1717249119        3.4054509282
  C        44.9540150705       28.8213765714        3.6430443964
  C        44.0205618112       28.5236945062        4.6538624387
  C        43.3923000438       29.5404492362        5.3660597644
  C        45.5631354367       27.7240267682        2.8577922096
  C        45.5335451612       27.7174527347        1.4364831361
  C        44.8272327625       28.7076868871        0.6835185360
  C        35.1250041045       26.6353129110        0.7355540506
  C        35.1158157361       26.6106002557        3.5454449606
  C        18.1484725346        3.2469883539        5.7066115956
  C        17.4298768014        4.3438252921        4.9973468391
  C        16.4148680925        4.0525452740        4.0735580729
  C        15.7665580990        5.0831793823        3.3981709378
  C        16.1210010695        6.4284428595        3.6211254004
  C        17.1121269874        6.7118309226        4.5786560248
  C        17.7597752204        5.6829125812        5.2584259923
  C        15.4905529470        7.5241539911        2.8486744822
  C        15.4965250818        7.5075445602        1.4275371907
  C        16.1932881615        6.5058360548        0.6808373876
  H        10.6723735271       12.4658588728        3.9046119532
  H        11.6945599875       10.5509871144        2.6627509665
  H        15.3917165045       11.1688262135        4.7720513315
  H        14.3512265892       13.0717022590        6.0172140625
  H        13.3761567151       11.6312113266        1.2013100193
  H        50.3228340762       22.7486470289        3.9872207481
  H        49.3197030265       24.6230721214        2.6811272843
  H        45.6417633854       24.1605441016        4.8631285119
  H        46.6626577975       22.2896837365        6.1714415265
  H        47.6298682898       23.5758725339        1.2461110861
  H        14.8719413437        8.5883219041        4.6085688235
  H        50.2872497472       22.7030006749       12.0598022891
  H        49.2692762665       24.5758692649       13.3598736570
  H        45.6101133743       24.1085195687       11.1465930846
  H        46.6521797461       22.2532076361        9.8323383294
  H        47.6078746728       23.5518633716       14.7967536268
  H        40.6347608927       17.0659724214       11.4162928163
  H        48.6869735148       14.0950608093        7.7999482909
  H        10.6812220875       12.4666827382       12.0931810653
  H        11.6894046849       10.5247177588       13.2969120694
  H        15.3934002015       11.1588562273       11.2055826923
  H        14.3649237299       13.0873405915        9.9902743476
  H        13.3757565169       11.6221371648       14.7530614391
  H        47.9299810974       14.2187295921        9.7106717637
  H        47.7799522009       14.3738531069        6.4951735263
  H        49.0825067514       18.5517933318       10.8670242727
  H        10.4156593724       14.1344511544        7.9987045975
  H        24.4770551739        3.0324225837        3.9106954898
  H        25.6105923952        4.8957151670        2.6830421029
  H        23.2353313052        7.7552625115        4.8465730791
  H        22.1200423066        5.8822498283        6.0752710048
  H        23.7932541012        5.8001184336        1.2615776909
  H        36.3747933324       32.1896629779        3.9692351309
  H        35.2488174356       30.3660032885        2.6892471635
  H        37.5140086781       27.4406958636        4.8832360583
  H        38.6197720410       29.2770145078        6.1724723968
  H        37.0177328368       29.4546568488        1.2702101289
  H        25.7191529435        8.6150378002        4.6503524199
  H        36.4515768952       32.2417713755       12.1075604384
  H        35.3368540348       30.4244352241       13.4010028696
  H        37.5248447213       27.4872688454       11.1439943021
  H        38.6141177953       29.3162537796        9.8376216637
  H        37.0360649730       29.4726663804       14.8222694077
  H        46.1091263634       26.5873806391       11.3855042962
  H        44.6681776082       35.1160975067        7.8139188399
  H        24.4346274485        3.0454496191       12.0890995335
  H        25.5614931784        4.8884645927       13.3389977204
  H        23.1573819671        7.7705300961       11.2387530360
  H        22.0420573878        5.9154419284        9.9891696488
  H        23.7748036522        5.8020501321       14.8126140248
  H        44.9535739672       34.3902338821        9.6951271627
  H        44.9015335553       34.2066955559        6.4905951254
  H        40.6656588538       33.2086014357       10.8529349092
  H        23.1503035724        1.9576446889        8.0051884210
  H        25.8328884654       19.6385267792        3.8935233513
  H        23.6596476914       19.6896300147        2.6660235067
  H        22.3414351453       16.2417286330        4.8733334013
  H        24.5164249405       16.2095493196        6.1012518121
  H        23.7237808106       17.6581400527        1.2501874947
  H        35.1163264222       15.4632618078        3.9822554102
  H        37.2410549800       15.3959075477        2.6751818500
  H        38.6986952539       18.7806413621        4.8945735628
  H        36.5722396491       18.8236257882        6.2091368712
  H        37.2139368212       17.3513208712        1.2423136214
  H        20.3588675935       17.9909998248        4.6713289489
  H        35.1520419632       15.4324840766       12.0892478696
  H        37.2903992678       15.3545244301       13.3727508803
  H        38.7251910820       18.7609219002       11.1724989812
  H        36.5840899324       18.8173683756        9.8831150098
  H        37.2278761445       17.3387615645       14.7946363395
  H        35.1456670698       26.6799823638       11.3933748005
  H        28.5005381176       21.0730096042        7.8764741464
  H        25.7577918333       19.6249139742       12.1683229233
  H        23.5738862059       19.6758297050       13.3844879025
  H        22.3023350085       16.1768812587       11.2314603427
  H        24.4873028852       16.1468467296       10.0124814976
  H        23.7019328297       17.6394495702       14.7999861310
  H        29.0081363665       21.7238040175        9.7380825773
  H        29.2017565817       21.7144154350        6.5725889703
  H        32.0705950067       18.5661081364       10.9881267336
  H        27.4059697934       19.0713634459        8.0802044738
  H        14.8517887009       19.6480265899       12.1406114348
  H        17.0140118533       19.6928993491       13.3835308744
  H        18.3019566720       16.1836773021       11.2563705615
  H        16.1358374871       16.1548307111       10.0127126754
  H        16.9224910135       17.6987125278       14.8503761841
  H        46.0919784130       15.4344754815       12.0628654675
  H        43.9670306872       15.3631298657       13.3668092262
  H        42.5385687404       18.7966399313       11.2048424620
  H        44.6639108124       18.8426538262        9.8897112451
  H        44.0128416794       17.3005487322       14.8317515453
  H        20.2930180726       17.9176357422       11.4237958206
  H        46.0402825028       15.3809663479        4.0374472493
  H        43.9094346790       15.3093856428        2.7444054033
  H        42.5115125620       18.7774203418        4.8699697498
  H        44.6488380392       18.8350923801        6.1645925866
  H        43.9991423990       17.2841340513        1.2804168338
  H        46.1990026437       26.6823619594        4.6233054000
  H        52.7410904677       21.0626197616        8.1946487991
  H        14.8779086184       19.6768586559        3.8987604852
  H        17.0788873944       19.7540601090        2.7195331467
  H        18.3394507342       16.2383109380        4.8515956794
  H        16.1402971790       16.1849476475        6.0403061446
  H        16.9433452302       17.7184566658        1.2976811973
  H        52.3223725045       21.6732332259        6.2943272687
  H        52.0131595486       21.7019854827        9.4956954636
  H        49.0666510786       18.6074421874        5.2043083532
  H        13.2473156450       19.0164708794        7.9774798334
  H        29.9497974893       12.4481772929       12.2257884601
  H        28.8769713839       10.5198909350       13.4008564546
  H        25.2376724718       11.2208008625       11.2199685710
  H        26.3283872581       13.1390411078       10.0409132791
  H        27.1642102070       11.6756410415       14.7948588989
  H        30.9943795733       22.7763485714       12.0105013238
  H        32.0032229994       24.6555569705       13.3078823201
  H        35.6973560265       24.1325770124       11.1678961300
  H        34.6682895438       22.2596266015        9.8660191234
  H        33.6767940206       23.5793636298       14.7562208823
  H        25.6997400579        8.6031011068       11.4046581661
  H        30.9292864298       22.7336112228        3.9544874043
  H        31.9561228753       24.5896614607        2.6437799330
  H        35.6120755072       24.1192972360        4.8610398659
  H        34.5679073239       22.2639734731        6.1727554361
  H        33.6521505599       23.5650532405        1.2080494096
  H        40.5867309843       17.0639189908        4.6580764977
  H        32.5082296387       14.1570800022        8.2452989500
  H        29.9020763445       12.4859706571        3.9538706398
  H        28.8614440322       10.5981663234        2.6924350730
  H        25.1815719704       11.2066862155        4.8332905929
  H        26.2383002173       13.0899420849        6.0946245427
  H        27.1582670084       11.6885774536        1.2459528030
  H        33.2990612197       14.2009561778        6.4441716487
  H        33.4053239101       14.4067081012        9.5986761495
  H        32.0730877164       18.5159385035        5.1321790323
  H        30.2181900533       14.1931267181        8.0773412918
  H        16.1186741787        2.9632146818       12.1302596593
  H        14.9534863370        4.8202928025       13.3229369990
  H        17.3653703956        7.6859082330       11.2094696078
  H        18.5141310411        5.8183389296       10.0096881016
  H        16.7535686004        5.7396090959       14.7715534038
  H        44.8282289514       32.1402447179       11.9769698338
  H        45.9375119746       30.3413592338       13.3063617015
  H        43.6825502025       27.3781665965       11.1523708380
  H        42.5998434334       29.1899606425        9.8097918137
  H        44.2305877326       29.4368020228       14.7688362756
  H        14.8508087677        8.5461201387       11.3633375248
  H        44.8997977145       32.2339753878        3.9317091016
  H        46.0246875104       30.4129484176        2.6521988036
  H        43.7636072367       27.4839542381        4.8454139655
  H        42.6458235063       29.3175558753        6.1244974239
  H        44.2686612890       29.4705420391        1.2180854317
  H        35.0756193444       26.6226324481        4.6330063409
  H        36.6050024359       35.1340236148        8.1805672750
  H        16.1439284557        3.0129608583        3.9036543132
  H        14.9743581675        4.8563299742        2.6879388505
  H        17.3953735789        7.7473308103        4.7557858499
  H        18.5424102617        5.8933638254        5.9834434157
  H        16.7646944321        5.7555754024        1.2192827952
  H        36.2782331901       34.4827242647        6.2731959754
  H        36.3803274581       34.2093700467        9.4997835709
  H        40.5802345664       33.2022667783        5.1537246416
  H        17.4705419649        1.9471566488        7.9741740020
  H        29.0445483924       19.3754877666       12.5083743354
  H        29.8276134657       19.6711956614        3.5124376392
  H        30.4837381735       15.5382595761        3.8693011406
  H        31.1900779724       15.6545899253       12.5652475868
  H        27.7280439531       17.7374562555       14.3089065681
  H        29.1936587819       15.3359608217       14.3437370106
  H        31.2617285822       19.7077733450        1.0390909918
  H        32.1546522975       15.9995799803        2.0502234544
  H        18.8528607199        0.8688258410       12.3351473454
  H        40.5281862312       35.2292184531        3.9520752156
  H        42.3235759360       34.4182556741        3.5908470885
  H        22.0877659959        0.6921416927       12.3515947208
  H        11.5970890514       18.7128855999       12.3822176112
  H        52.2648045820       18.4310003275        3.6775984591
  H        49.2549766492       16.4770751026        3.5846411527
  H        10.1505371821       15.7982368599       12.2925860377
  H        50.8498522258       17.6924897266        3.9542762751
  H        10.0461542550       17.3945946103       12.0519383640
  H        20.2139532245        0.0020929534       12.0421041010
  H        39.1839050918       36.1248359427        3.6865217666
 Ni        30.6000061709       17.6756862518        2.4252884149
 Ni        30.6519667833       16.4166670073        0.0823181301
 Ni        29.4197312702       18.4592684832        0.0790041646
 Ni        29.8497629960       17.3704485641       13.1602219587
  O        10.6498974718       14.3651281119        5.4858076836
  O        12.6131624985       14.6575770361        6.5839050942
  O        49.1476088756       16.8459892746        7.9897432554
  O        50.3501967366       20.9359407194        5.6481471655
  O        48.3485065677       20.5932476208        6.6659996754
  O        11.0513603481       17.0539483024        6.5006793291
  O        50.3209642947       20.8816368843       10.4067845961
  O        48.3467145889       20.5866674797        9.3270814690
  O        49.5435122761       18.2484638151       10.0682289747
  O        12.3589006007       18.6245976754        7.9997779563
  O        48.6931711642       14.1486760599        6.7512473574
  O         8.2098223655       14.2104557768        9.3225987859
  O        10.7353560641       14.5067531527       10.6643436601
  O        12.5718197990       14.5828592955        9.3284848499
  O        22.8443804072        2.0430758182        5.4872204740
  O        21.6047937702        3.5918640400        6.5903340141
  O        42.0581580635       34.1372697580        7.9790501141
  O        37.9818520190       33.1386753580        5.5727267982
  O        39.2180880326       31.5764054309        6.6665914023
  O        20.3083627596        1.0394557444        6.5020154723
  O        38.0246051904       33.1856840816       10.4151461096
  O        39.2190747740       31.5836600012        9.3265313039
  O        40.6522863517       33.7692911584       10.0603059104
  O        18.2552930950        1.3760689381        7.9968119698
  O        44.6222437499       35.1005333671        6.7587302917
  O        24.2053634977        0.0000504155        9.3208604469
  O        22.7530056630        2.0584048771       10.5840182915
  O        21.6241446074        3.5959504199        9.3421193528
  O        27.4997219105       18.7508271099        5.4934502919
  O        26.7659817842       16.9336791958        6.6529946765
  O        30.6561173501       19.4019872266        8.0163265446
  O        33.5441510422       16.3294414880        5.6541032722
  O        34.2754021936       18.1780907191        6.7449282466
  O        29.5711769512       17.0630843493        6.5726411566
  O        33.5480271540       16.3398125927       10.4187286040
  O        34.2980956153       18.2372108378        9.4077809747
  O        31.6458964066       18.3184328978       10.1499145499
  O        30.3207338875       15.1589503421        8.0791353254
  O        28.5544117425       21.0313835801        6.8292728989
  O        28.5143084222       20.9544496697        9.4070364696
  O        27.4591353615       18.6801244355       10.6576195063
  O        26.6944752144       16.9291558651        9.4128346385
  O        13.1492512588       18.6928490883       10.5876644156
  O        13.9196928275       16.9162523465        9.4052431962
  O        50.5956379970       19.3500670640        8.0205230751
  O        47.6824263327       16.3271804892       10.4173765873
  O        46.9498743743       18.1755034716        9.3259162935
  O        11.0695776612       17.0155995552        9.4896327774
  O        47.6748124299       16.3359109366        5.6528118621
  O        46.9249294577       18.2357784293        6.6631927386
  O        49.5683265171       18.3176701055        5.9823001086
  O        10.3185235723       15.1003187220        7.9970841241
  O        52.6707398009       21.0278608644        9.2418246212
  O        12.1468164091       20.8911680547        6.6732591134
  O        13.1080131008       18.6137143108        5.3256118637
  O        13.9573902363       16.9871762756        6.6653402494
  O        29.9945803182       14.4430767823       10.7292026187
  O        28.0894051046       14.6545681301        9.4942976463
  O        32.0759385801       16.8649304474        8.0728138163
  O        30.9629856236       20.9477739650       10.4089647673
  O        32.9444612265       20.6004568807        9.3365511611
  O        29.5614303810       17.0787523993        9.5751543839
  O        30.8718395965       20.9389305109        5.6532408893
  O        32.8757310017       20.5870381922        6.6640920685
  O        31.6830163533       18.2489720467        5.9812040447
  O        28.2929914915       18.6763127057        8.0697515860
  O        32.4893431612       14.2148079287        9.3267034872
  O        32.4038131759       14.2194610463        6.8212960883
  O        29.9107431453       14.4339472518        5.4861990807
  O        28.0374003913       14.5868158746        6.7532479762
  O        17.8891836271        1.9665741428       10.6628369900
  O        18.9561591324        3.5271164662        9.4080260190
  O        39.1686683924       34.1388079601        7.9971821688
  O        43.2802096409       33.0589726712       10.3316824423
  O        42.0345252219       31.5064692063        9.2416290159
  O        20.3175605131        1.0365768405        9.4804004691
  O        43.2760519987       33.1825120760        5.5749146505
  O        42.0052777225       31.5840941074        6.5830131654
  O        40.5790081440       33.7749079131        5.9358766412
  O        22.3671997265        1.3844377977        7.9980210362
  O        36.6727127212       35.0997859337        9.2332555974
  O        16.4454906735        0.0643426677        6.6683514081
  O        17.9364723692        2.0433973625        5.3263657029
  O        18.9189542670        3.5931304200        6.6659457441
  O        29.9150043098       18.8264788421        3.9929488520
  O        29.7802694979       18.9060152692       12.0689402311
  O        31.1307573312       16.2553977669        4.0086777715
  O        31.1669670350       16.5005047450       12.0763328177
  O        31.9884000853       16.7175543028        1.4047222909
  O        30.0319203249       15.8301455411       14.3251585141
  O        30.4058064895       19.4172773679        1.3993169816
  O        28.5618906656       18.2394411032       14.3276089906
  O        39.4570035388       35.2441720918        4.0019636985
  O        19.1408671982        0.0043083712       11.9906188468
  O        41.9695304487       35.1724691514        4.0872066098
  O        21.6913348608       -0.0691980554       11.8958642345
  O        51.3649312312       18.6143092566        4.0054595652
  O        10.7511716351       18.7472080421       11.9048949694
  O        50.0794949550       16.4128421374        4.0918008864
  O         9.5246113718       16.4830709217       11.9911788767
 Zr         9.2962919884       16.0529544452        6.1823270033
 Zr        49.8358474972       16.0069333518        9.7465760026
 Zr        22.0730980783        0.0292873500        6.1892477306
 Zr        42.4608314192       35.1531231346        9.8009948154
 Zr        29.6098103700       19.0668465102        6.2145777780
 Zr        29.5819671267       19.1829484221        9.8365566475
 Zr        11.0377329702       19.0520016900        9.8276632169
 Zr        11.0434812858       19.1548978469        6.2512348359
 Zr        31.3360292645       16.1097529750        9.8681838938
 Zr        31.3819432950       16.0150983608        6.2305148000
 Zr        18.6008593047       -0.0018202347        9.7633131805
 Zr        18.5063200369       -0.0077881932        6.2136127705
 Zr        12.3018620007       16.3237359476        7.9902493286
 Zr        48.6151969610       18.8327396959        8.0102902807
 Zr        20.3144968321        2.4727563135        7.9907139801
 Zr        40.6433126275       32.6867031570        7.9783374449
 Zr        28.3441339726       16.3471808188        8.0806465461
 Zr        32.6164053000       18.8356652128        8.0436719174
  H        30.6998431696       17.8845409511       15.3842303384
  H        29.3642013017       17.0071521826        1.0886157329
