     563
 i =      278, E =     -4694.9297308145
  C        11.8585147935       14.0532965235        5.7415388475
  C        12.4558166069       12.8903246879        5.0233889698
  C        11.7045290888       12.1722919765        4.0807075772
  C        12.2808900410       11.1101256613        3.3883237519
  C        13.6210831101       10.7393843561        3.6169216494
  C        14.3537095091       11.4419582547        4.5915584942
  C        13.7808687119       12.5068843198        5.2831420026
  C        14.2605979223        9.6487878739        2.8434840877
  C        14.2558534603        9.6567955449        1.4217863515
  C        13.7430172576       10.7590374102        0.6678231733
  C        49.1264567649       21.2335417447        5.8797035537
  C        48.5497470688       22.4012763901        5.1527876240
  C        49.2995530729       23.0680163682        4.1711624794
  C        48.7326478540       24.1070664004        3.4379052878
  C        47.4023299278       24.5093499396        3.6669510718
  C        46.6717150829       23.8611829202        4.6812146150
  C        47.2340959867       22.8163179508        5.4106419433
  C        46.7722408830       25.5869849602        2.8695646693
  C        46.7617288545       25.5574537483        1.4478011387
  C        47.2615048068       24.4423121267        0.7042703875
  C        14.8595945168        8.5703556261        0.7085067288
  C        14.8912353664        8.5967113017        3.5201023434
  C        49.1129569742       21.2036530446       10.1452689941
  C        48.5278779120       22.3650394177       10.8720400438
  C        49.2668358971       23.0248795379       11.8657987802
  C        48.6906486684       24.0594612470       12.5972295937
  C        47.3606388070       24.4572663742       12.3582503186
  C        46.6406633344       23.8133870396       11.3337224910
  C        47.2140377316       22.7774525439       10.6018942218
  C        46.7223593129       25.5321559937       13.1493822733
  C        46.7342288767       25.5284058653       14.5710823962
  C        47.2493780887       24.4290854187       15.3275062295
  C        40.6158162352       17.0569286480       15.3156251836
  C        40.6309270292       17.1052635839       12.5051988357
  C        11.8825184072       14.0861392478       10.2854093545
  C        12.4712553228       12.9099764082       10.9892393687
  C        11.7140906884       12.1781056993       11.9167218500
  C        12.2803826880       11.0955538499       12.5851759322
  C        13.6185717501       10.7202452146       12.3521070305
  C        14.3559526386       11.4342705269       11.3896591732
  C        13.7908853396       12.5155663012       10.7169259878
  C        14.2521555149        9.6236543385       13.1226548957
  C        14.2513626541        9.6440680949       14.5444908928
  C        13.7421614933       10.7533307415       15.2915661999
  C        22.5050230318        3.2406876035        5.7494480763
  C        23.2086668133        4.3430461106        5.0368927490
  C        24.2075181112        4.0582361993        4.0947141786
  C        24.8298047809        5.0945505923        3.4044586434
  C        24.4664095619        6.4351455988        3.6377530322
  C        23.4916867540        6.7117483743        4.6132185221
  C        22.8657397054        5.6773493129        5.3024928193
  C        25.0743854886        7.5402012512        2.8652247169
  C        25.0618779436        7.5344175175        1.4443416422
  C        24.3726790773        6.5321655111        0.6906973910
  C        38.2964321665       31.9292101697        5.8515235502
  C        37.5548181268       30.8440172224        5.1534502112
  C        36.6467818544       31.1470213312        4.1245851204
  C        36.0321277895       30.1282341050        3.4057854302
  C        36.2926284983       28.7704177030        3.6991757832
  C        37.1590135832       28.4800453857        4.7764512999
  C        37.7891870006       29.4984245362        5.4835386428
  C        35.7029567268       27.6804087184        2.9092990259
  C        35.7057937638       27.7123262952        1.4546540297
  C        36.4232049827       28.6784751841        0.7318005364
  C        25.6859903854        8.6091578998        0.7334971010
  C        25.6597668404        8.6152867221        3.5444084639
  C        38.3216725025       31.9614219582       10.1503169459
  C        37.5861273492       30.8919858091       10.8733889827
  C        36.7073574359       31.1954487072       11.9272916951
  C        36.1029373049       30.1758327394       12.6549610005
  C        36.3441168410       28.8167033182       12.3461817284
  C        37.1863682409       28.5284173039       11.2478667205
  C        37.8052089941       29.5451939551       10.5329224750
  C        35.7559942574       27.7190619143       13.1230063323
  C        35.7325911869       27.7316648595       14.5775130426
  C        36.4355081689       28.6887019163       15.3265215853
  C        46.1364336016       26.6211395119       15.2812322185
  C        46.0883480421       26.5805208275       12.4733615955
  C        22.4635461632        3.2550795082       10.2530780056
  C        23.1656508991        4.3653772509       10.9665061200
  C        24.1830559590        4.0816312492       11.8911704293
  C        24.8165588821        5.1135711394       12.5794382539
  C        24.4510118841        6.4576920892       12.3665547418
  C        23.4577446550        6.7351642461       11.4088112441
  C        22.8209201506        5.7035029287       10.7197118747
  C        25.0778066265        7.5551624172       13.1448969559
  C        25.0640807968        7.5419196689       14.5673350499
  C        24.3718302757        6.5368973980       15.3141711577
  C        26.5622082240       17.8216277102        5.7458309987
  C        25.2564749330       17.8773680348        5.0314200919
  C        24.9949988681       18.8888414963        4.0941277815
  C        23.7831539309       18.9141247562        3.4098464321
  C        22.8018447370       17.9300447917        3.6412567202
  C        23.0574577353       16.9426117833        4.6105265467
  C        24.2703125395       16.9133580279        5.2949657746
  C        21.5362410521       17.9198833525        2.8711557005
  C        21.5480745936       17.9142410981        1.4497054296
  C        22.7597716063       17.7988324924        0.6977347300
  C        34.4177842658       17.2086589518        5.9082739784
  C        35.7150034234       17.1347320574        5.1752052292
  C        35.9113280870       16.1582277849        4.1858757993
  C        37.0943603201       16.1272252528        3.4523633281
  C        38.1126098301       17.0728297214        3.6843831256
  C        37.9187767595       18.0285456757        4.7005367869
  C        36.7346093080       18.0637317830        5.4336639839
  C        39.3661725217       17.0717117071        2.8945020176
  C        39.3601751688       17.0739241703        1.4717958844
  C        38.1518506032       17.1839931092        0.7139920272
  C        20.3061045648       17.9395812430        0.7356591248
  C        20.3100595194       17.9129050360        3.5477798420
  C        34.4464595794       17.2468893100       10.1738123377
  C        35.7430237373       17.1455680482       10.9036028890
  C        35.9639123710       16.1376240441       11.8554050379
  C        37.1510110807       16.1048524875       12.5833423224
  C        38.1507211324       17.0754938568       12.3767770816
  C        37.9378085305       18.0570014760       11.3903162391
  C        36.7485774959       18.0969822130       10.6679619956
  C        39.4002062728       17.0807968799       13.1715161495
  C        39.3776463735       17.0769501734       14.5930864909
  C        38.1602238564       17.1825221075       15.3369679663
  C        35.0770277961       26.6656214633       15.2806604077
  C        35.2050202563       26.6239255878       12.4475544091
  C        26.5642295420       17.8253001890       10.3130809501
  C        25.2532036499       17.8727357268       11.0190478193
  C        24.9816754812       18.8933456200       11.9424711603
  C        23.7644187367       18.9215970201       12.6158855645
  C        22.7898581245       17.9310491667       12.3855534277
  C        23.0541719282       16.9354049124       11.4279505887
  C        24.2732505756       16.9035513907       10.7548020392
  C        21.5245066794       17.9200025793       13.1538315939
  C        21.5416614669       17.9140627296       14.5746492079
  C        22.7567686344       17.7986627216       15.3214796742
  C        14.0448732052       17.8329499103       10.2816884672
  C        15.3528049557       17.8994310362       10.9945545699
  C        15.6163702438       18.9188581950       11.9219502863
  C        16.8286830370       18.9461969328       12.6070787928
  C        17.8066030447       17.9563999051       12.3853332084
  C        17.5494045850       16.9628365381       11.4228488332
  C        16.3370045298       16.9315509917       10.7385506424
  C        19.0715087463       17.9386115008       13.1564538050
  C        19.0605706556       17.9349773939       14.5775567242
  C        17.8472790387       17.8397010170       15.3292430467
  C        46.8022226897       17.2170311544       10.1583985108
  C        45.5095015230       17.1477864993       10.9020402808
  C        45.3036820307       16.1607552107       11.8787050481
  C        44.1203359223       16.1314732251       12.6124114124
  C        43.1108875739       17.0893999151       12.3932462335
  C        43.3141051056       18.0566458269       11.3900293730
  C        44.4982121540       18.0893828642       10.6565885108
  C        41.8563916715       17.0884777938       13.1824444643
  C        41.8621189051       17.0785777641       14.6051254719
  C        43.0710880469       17.1750306320       15.3637330915
  C        20.3026714795       17.9396191379       15.2919764140
  C        20.2974616873       17.9116823563       12.4799606283
  C        46.7828980475       17.2306468281        5.8878542691
  C        45.4790864537       17.1194854396        5.1710908045
  C        45.2621882086       16.1131211800        4.2172762444
  C        44.0736783994       16.0762951456        3.4916141600
  C        43.0706906535       17.0427445061        3.7016969013
  C        43.2786107020       18.0202571219        4.6929977789
  C        44.4683792841       18.0631818243        5.4140729618
  C        41.8222518492       17.0527580406        2.9054167800
  C        41.8447461521       17.0590832817        1.4838213864
  C        43.0627197591       17.1631934293        0.7406868924
  C        46.1539988569       26.6374486077        0.7259888974
  C        46.1620337215       26.6560339338        3.5356344747
  C        14.0384436663       17.8262607851        5.7044709138
  C        15.3496427960       17.8908767520        4.9990204333
  C        15.6199873961       18.9144321919        4.0789618523
  C        16.8418072747       18.9488668036        3.4121352912
  C        17.8172072707       17.9585428235        3.6413301489
  C        17.5519418080       16.9596602907        4.5951433657
  C        16.3324767243       16.9250777539        5.2660783906
  C        19.0830277192       17.9401535752        2.8736914062
  C        19.0666642119       17.9346628065        1.4528102734
  C        17.8502934440       17.8388920653        0.7053017273
  C        28.7624204923       14.1527913306       10.4417091404
  C        28.1706804937       12.9735383856       11.1236316006
  C        28.8990238471       12.2290672401       12.0643470128
  C        28.3101088019       11.1359255057       12.6954163863
  C        26.9799933027       10.7663221045       12.4125692566
  C        26.2738845168       11.4919706568       11.4358333094
  C        26.8600994069       12.5823734872       10.8015704133
  C        26.3177136357        9.6740016178       13.1597810153
  C        26.2993551795        9.6942040386       14.5804188487
  C        26.7920106699       10.8074646981       15.3329026955
  C        32.1750273202       21.2423968188       10.0976505720
  C        32.7576730359       22.4060808942       10.8182834591
  C        32.0342283211       23.0346150718       11.8464435797
  C        32.6086014889       24.0625827208       12.5844958952
  C        33.9192124905       24.5129065810       12.3070977542
  C        34.6150354077       23.9093007319       11.2360995676
  C        34.0502928253       22.8637217616       10.5130127168
  C        34.5537362382       25.5748594087       13.0998871588
  C        34.5132923185       25.5647293348       14.5535354265
  C        34.0474594486       24.4558908924       15.2773770909
  C        25.6912020296        8.6096474550       15.2896743471
  C        25.6895352330        8.6242348227       12.4768325837
  C        32.0803132213       21.1685021639        5.7995131561
  C        32.6450492857       22.3494650855        5.0978970053
  C        31.9586196700       22.9503301088        4.0278880222
  C        32.5391366431       23.9940586523        3.3168747245
  C        33.8220892814       24.4855133090        3.6557246058
  C        34.4737874070       23.9115993283        4.7717352417
  C        33.9028309788       22.8562999713        5.4716531884
  C        34.4789637380       25.5476765055        2.8854881450
  C        34.4768415092       25.5505452318        1.4299061071
  C        34.0304492715       24.4488637027        0.6823852443
  C        40.6064056486       17.0511687772        0.7611980624
  C        40.5916353849       17.0770897082        3.5715788739
  C        28.6706399165       14.0531867002        5.8163449664
  C        28.0688901775       12.9049226581        5.0828122220
  C        28.8170512451       12.2025053144        4.1255943323
  C        28.2426303156       11.1476614189        3.4227145554
  C        26.9058379022       10.7683150241        3.6550499450
  C        26.1751555384       11.4548268132        4.6425205528
  C        26.7472789877       12.5122820429        5.3458803231
  C        26.2739337103        9.6799018701        2.8748033102
  C        26.2785379977        9.6972425797        1.4538430393
  C        26.7807518100       10.8095679330        0.7086523594
  C        18.1352014589        3.1803566252       10.3171216402
  C        17.4052979338        4.2777903689       11.0156598653
  C        16.3896163814        3.9991067105       11.9430260436
  C        15.7415065625        5.0388817527       12.6065746500
  C        16.0930543789        6.3826491608       12.3669384547
  C        17.0823778572        6.6525246981       11.4032483359
  C        17.7317861770        5.6153487053       10.7381779625
  C        15.4685729058        7.4902815094       13.1300086711
  C        15.4842601536        7.4899940739       14.5517293022
  C        16.1859059899        6.4964189880       15.3048715508
  C        42.9458311062       31.8595429092       10.0726387794
  C        43.6464822372       30.7719052897       10.8168248224
  C        44.5935639138       31.0932900672       11.8013189355
  C        45.1994366764       30.0878422499       12.5490252289
  C        44.8716027832       28.7349535673       12.3354900639
  C        43.9439624555       28.4205280022       11.3240346726
  C        43.3348744461       29.4255937621       10.5760652483
  C        45.4893755719       27.6557089615       13.1386527767
  C        45.4938727579       27.6813811595       14.5603404532
  C        44.8072043554       28.6897707146       15.3068841714
  C        14.8554902404        8.5626346629       15.2640639796
  C        14.8729674084        8.5618308545       12.4514130165
  C        42.9460371827       31.9613086128        5.8090532764
  C        43.6911016041       30.8851163337        5.0949822388
  C        44.6575950002       31.1910867162        4.1246496986
  C        45.2792080397       30.1715918077        3.4068022696
  C        44.9536201818       28.8214477779        3.6426574947
  C        44.0177141181       28.5236630837        4.6510769606
  C        43.3892974105       29.5403580259        5.3632754501
  C        45.5631142319       27.7241467623        2.8575189137
  C        45.5340455808       27.7176493977        1.4362238545
  C        44.8283185067       28.7083134909        0.6832794661
  C        35.0609021936       26.6571742101        0.7268735656
  C        35.1284630951       26.5871985442        3.5620369615
  C        18.1484421472        3.2464898712        5.7067747775
  C        17.4296231592        4.3436151709        4.9973220528
  C        16.4143610851        4.0522978320        4.0739222183
  C        15.7659383407        5.0828604202        3.3984247657
  C        16.1206351791        6.4280697570        3.6209987333
  C        17.1120995854        6.7115824925        4.5781044504
  C        17.7597735082        5.6826660711        5.2579277214
  C        15.4900788821        7.5237762905        2.8485489752
  C        15.4958484489        7.5072555686        1.4273957790
  C        16.1924197579        6.5054242726        0.6806857189
  H        10.6727184365       12.4670842604        3.9029546681
  H        11.6948917161       10.5522876437        2.6610622013
  H        15.3903367060       11.1664463405        4.7741964688
  H        14.3499547315       13.0691896324        6.0195733169
  H        13.3764795182       11.6314153792        1.2010353208
  H        50.3220635464       22.7476003456        3.9860246298
  H        49.3189208334       24.6218614421        2.6798530401
  H        45.6424978075       24.1625764912        4.8649196700
  H        46.6632262303       22.2917757214        6.1733192597
  H        47.6296616455       23.5757292912        1.2458711098
  H        14.8714687061        8.5877641263        4.6084058173
  H        50.2865089886       22.7012821639       12.0613690047
  H        49.2687822334       24.5742412980       13.3613743758
  H        45.6116948101       24.1116286990       11.1438561452
  H        46.6534383697       22.2562427400        9.8295300715
  H        47.6078635761       23.5518001995       14.7967032078
  H        40.6360205468       17.0853185306       11.4170045042
  H        48.6871885733       14.0950657994        7.8000873270
  H        10.6811145514       12.4682895731       12.0951467141
  H        11.6888540131       10.5261632252       13.2988891849
  H        15.3907871869       11.1549926455       11.2024849894
  H        14.3629055751       13.0837022032        9.9871891995
  H        13.3755820979       11.6220646325       14.7529632889
  H        47.9301230849       14.2183000511        9.7107688702
  H        47.7799610589       14.3740022286        6.4955874307
  H        49.0825682808       18.5525533141       10.8670861462
  H        10.4160100607       14.1343386939        7.9987986774
  H        24.4743772618        3.0190459678        3.9159922881
  H        25.6072210422        4.8762936968        2.6755033786
  H        23.2042367583        7.7450944952        4.7956501905
  H        22.0922706322        5.8780429024        6.0397216308
  H        23.8128621223        5.7699777791        1.2249399328
  H        36.4510695161       32.1908323969        3.8905181047
  H        35.3315917638       30.3726483100        2.6106689650
  H        37.3741921616       27.4403046347        5.0138283110
  H        38.4917918974       29.2746816532        6.2829450054
  H        37.0123194184       29.4166602282        1.2674876042
  H        25.6833228641        8.5959575017        4.6324244028
  H        36.5243244585       32.2388503392       12.1740622168
  H        35.4207341326       30.4215346213       13.4653567714
  H        37.3909503447       27.4893054025       10.9991796825
  H        38.4878327276       29.3215085259        9.7166682904
  H        37.0347558358       29.4337781245       14.8118998821
  H        46.1093765010       26.5879661640       11.3853199609
  H        44.6676431634       35.1158620416        7.8142662323
  H        24.4666685178        3.0440592569       12.0527620094
  H        25.6078636137        4.8873485309       13.2909775513
  H        23.1641335722        7.7685918013       11.2361345739
  H        22.0377674083        5.9135897058        9.9949194598
  H        23.8110991680        5.7787031317       14.7753762340
  H        44.9517328627       34.3886432354        9.6942123203
  H        44.8999288807       34.2058896917        6.4911579062
  H        40.6612548769       33.2054429222       10.8509086732
  H        23.1501572593        1.9568849158        8.0035566631
  H        25.7504291225       19.6511142407        3.9189235448
  H        23.5809084132       19.7023203267        2.6878939021
  H        22.3077035743       16.1759117255        4.7946547206
  H        24.4833973744       16.1385355567        6.0275836749
  H        23.6977741730       17.6764970547        1.2315664483
  H        35.1176082277       15.4391342665        3.9969706081
  H        37.2437171651       15.3621338686        2.6936572015
  H        38.6952816842       18.7681143732        4.8847749976
  H        36.5704003753       18.8185448739        6.1992486741
  H        37.2112412556       17.3030555358        1.2442284669
  H        20.3109255506       17.9396078061        4.6359809607
  H        35.1936199823       15.3876506547       12.0207024838
  H        37.3180323674       15.3207689939       13.3187618296
  H        38.7022574286       18.8133497106       11.2246250436
  H        36.5650555681       18.8729547039        9.9285805404
  H        37.2257753724       17.2993037018       14.7956645661
  H        35.1979347981       26.6380764703       11.3592536517
  H        28.5073102004       21.0777934105        7.7881927772
  H        25.7348259478       19.6585902619       12.1141983999
  H        23.5528445621       19.7149281546       13.3294818154
  H        22.3077013353       16.1650741975       11.2457269506
  H        24.4948252266       16.1239072392       10.0300144762
  H        23.6923728351       17.6768496965       14.7834508537
  H        28.9818291000       21.7242823346        9.6731717205
  H        29.2002480117       21.6988723861        6.4630983600
  H        32.1282056728       18.6417899667       10.8426784434
  H        27.3682184591       19.0265263606        7.9936476771
  H        14.8603255771       19.6822995079       12.0909303318
  H        17.0326421137       19.7397116439       13.3227938493
  H        18.2972041155       16.1926864479       11.2453031110
  H        16.1221236979       16.1521873966       10.0114307200
  H        16.9079564585       17.7335611971       14.7945549657
  H        46.0884622671       15.4292278154       12.0565094019
  H        43.9636026080       15.3575955155       13.3607000615
  H        42.5445454526       18.8057500072       11.2153027425
  H        44.6691248166       18.8508662332        9.8991166500
  H        44.0122591496       17.2920012647       14.8341419280
  H        20.2969038469       17.9375676502       11.3917457921
  H        46.0408733084       15.3733836511        4.0458911374
  H        43.9099242466       15.2943413810        2.7532422700
  H        42.5106060229       18.7721657629        4.8622429146
  H        44.6481132055       18.8368333891        6.1566394094
  H        43.9977632389       17.2699897451        1.2829825381
  H        46.1982177785       26.6825036201        4.6231016644
  H        52.7411905375       21.0627128525        8.1946463544
  H        14.8636707599       19.6767138932        3.9056930978
  H        17.0548583724       19.7462562301        2.7034462164
  H        18.2981993020       16.1886708025        4.7753768973
  H        16.1099977911       16.1441069535        5.9891022469
  H        16.9132161043       17.7321015099        1.2435447773
  H        52.3222010349       21.6736726714        6.2948386789
  H        52.0135322724       21.7026856487        9.4954980860
  H        49.0669623779       18.6082512040        5.2043750324
  H        13.2469177322       19.0165618780        7.9750370242
  H        29.9290654023       12.5075897316       12.2804028810
  H        28.8760975412       10.5560855429       13.4211022003
  H        25.2454850905       11.2162189250       11.2119855143
  H        26.3131285592       13.1629729207       10.0629415587
  H        27.1518110237       11.6830756014       14.8010199497
  H        31.0257176013       22.6883304839       12.0604147876
  H        32.0416473762       24.5434910166       13.3782586849
  H        35.6275086780       24.2396232790       11.0135409009
  H        34.6028306032       22.3692237005        9.7173604088
  H        33.7242732812       23.5681052439       14.7420265128
  H        25.7222793418        8.6118491044       11.3887718276
  H        30.9755591308       22.5711476164        3.7579985224
  H        31.9972405523       24.4545719715        2.4942592590
  H        35.4631226445       24.2710719114        5.0465662087
  H        34.4256177557       22.3874230411        6.3019018841
  H        33.6970004093       23.5540733705        1.1992679109
  H        40.5866498195       17.0486599793        4.6595599546
  H        32.5069725266       14.1534588549        8.2041611708
  H        29.8499913590       12.4939010484        3.9508332103
  H        28.8275159958       10.5996847206        2.6872493131
  H        25.1409214329       11.1716693972        4.8269853228
  H        26.1804903306       13.0610425571        6.0942122968
  H        27.1313778132       11.6857759607        1.2463658452
  H        33.2992104274       14.2271307768        6.4484664122
  H        33.3959958861       14.3756422635        9.6016625436
  H        32.0459749515       18.4521653781        4.9944680366
  H        30.1995540427       14.1375448868        8.0555275548
  H        16.1179987413        2.9624524685       12.1293093673
  H        14.9520731827        4.8191596346       13.3221592610
  H        17.3644225102        7.6855103628       11.2101560336
  H        18.5136468964        5.8180288045       10.0101422244
  H        16.7520997460        5.7388706386       14.7712701189
  H        44.8307135947       32.1403671114       11.9743481826
  H        45.9403848263       30.3415284537       13.3039334084
  H        43.6797629901       27.3786010053       11.1554007654
  H        42.5963580314       29.1904813587        9.8131517325
  H        44.2323319273       29.4377972270       14.7684049888
  H        14.8487849090        8.5446779944       11.3632068408
  H        44.9023720482       32.2337593731        3.9347443168
  H        46.0275397507       30.4127663117        2.6549609016
  H        43.7588598651       27.4840556494        4.8407352125
  H        42.6406215755       29.3177253958        6.1196388894
  H        44.2701764344       29.4714146107        1.2179580308
  H        35.1001163019       26.5931116445        4.6501128739
  H        36.6045328151       35.1332298074        8.1809773741
  H        16.1433781156        3.0126434031        3.9044166169
  H        14.9735305217        4.8558594634        2.6884745262
  H        17.3955416271        7.7470820833        4.7549065405
  H        18.5425152717        5.8929794818        5.9828820696
  H        16.7636848151        5.7550785892        1.2191650835
  H        36.2801517987       34.4807510718        6.2735818063
  H        36.3826269035       34.2087196142        9.5013471532
  H        40.5766044434       33.1999112082        5.1559300097
  H        17.4701975760        1.9459040061        7.9740386057
  H        28.7214247643       19.0600232907       12.1690467495
  H        28.7161313866       18.8295909121        3.6002530181
  H        30.8577704948       15.3937871755        3.6481530592
  H        32.4165596551       16.4462482875       12.2615013837
  H        29.4194971109       19.2745817233       14.7973693479
  H        18.8546849454        0.8700378279       12.3341554711
  H        40.5282428654       35.2289967984        3.9526872067
  H        42.3206683726       34.4152623900        3.5930223622
  H        22.0876351124        0.6929873610       12.3503718638
  H        11.5966335494       18.7129820691       12.3827633470
  H        52.2648347148       18.4314533067        3.6775099794
  H        49.2551612588       16.4768365035        3.5841024797
  H        10.1509618118       15.7982153169       12.2920835422
  H        50.8500466462       17.6927074525        3.9540232325
  H        10.0462640880       17.3947694725       12.0519330114
  H        20.2147673603        0.0017009998       12.0419618120
  H        39.1842014030       36.1249094992        3.6872963628
 Ni        30.3153974729       17.4952324740        2.4210358596
 Ni        30.3102188228       15.2980726556       -2.7482864604
 Ni        29.9722902892       17.2540980411        0.0846320239
 Ni        30.2686541129       17.5854062919       13.1577041128
  O        10.6497613311       14.3652566260        5.4858123575
  O        12.6130045330       14.6574228013        6.5838392935
  O        49.1475394914       16.8460351573        7.9897264834
  O        50.3500423854       20.9361697570        5.6483430581
  O        48.3484634467       20.5931537301        6.6659932413
  O        11.0507057178       17.0542807226        6.5005290013
  O        50.3207763090       20.8815615239       10.4067784448
  O        48.3466542043       20.5865868288        9.3270260347
  O        49.5431732933       18.2484378052       10.0683656766
  O        12.3585933686       18.6246898183        7.9996608228
  O        48.6931767066       14.1486174505        6.7513135688
  O         8.2098439027       14.2104784958        9.3225147271
  O        10.7350047024       14.5067923593       10.6643420447
  O        12.5715719629       14.5827008961        9.3286026577
  O        22.8438942334        2.0409148196        5.4877328951
  O        21.6043089636        3.5914988528        6.5902646436
  O        42.0575019752       34.1365804892        7.9793622815
  O        37.9818488307       33.1401073194        5.5719276824
  O        39.2169663964       31.5762577983        6.6658396055
  O        20.3081707488        1.0394530147        6.5016368814
  O        38.0252633390       33.1877022574       10.4148957180
  O        39.2192512143       31.5841399754        9.3253551528
  O        40.6522683485       33.7688947697       10.0601834755
  O        18.2557462524        1.3759859875        7.9968812971
  O        44.6223081842       35.1003823401        6.7588558203
  O        24.2053821496       -0.0000255994        9.3209104149
  O        22.7532150111        2.0579648648       10.5837089860
  O        21.6240031988        3.5957322303        9.3417166464
  O        27.4596209731       18.6823166381        5.4122025472
  O        26.6902707702       16.9300579276        6.6510853817
  O        30.6299513407       19.3459056733        7.9176709565
  O        33.5394695904       16.3232629137        5.6499755714
  O        34.2681145338       18.1767720861        6.7359611107
  O        29.5294855416       17.0025499328        6.5050152770
  O        33.5550651323       16.3435713577       10.4112215944
  O        34.2963210464       18.2395103382        9.3945977820
  O        31.6441004684       18.3227421060       10.0654032296
  O        30.2867606841       15.1044224009        8.0711079578
  O        28.5551620488       21.0228320158        6.7405965824
  O        28.5091357051       20.9548205558        9.3128352577
  O        27.4534680098       18.6812829752       10.6367068733
  O        26.6934125612       16.9247807646        9.4078739777
  O        13.1463273005       18.6939235219       10.5858969143
  O        13.9172676384       16.9156941145        9.4032902256
  O        50.5955557561       19.3502797816        8.0206717833
  O        47.6822683189       16.3272298694       10.4175285746
  O        46.9496291498       18.1755483971        9.3259337288
  O        11.0686761042       17.0161611766        9.4895483847
  O        47.6747054928       16.3358721442        5.6529200508
  O        46.9241699034       18.2358186630        6.6628117217
  O        49.5683896346       18.3178283154        5.9822828468
  O        10.3186589359       15.1001959709        7.9971032428
  O        52.6706709681       21.0280478951        9.2418166191
  O        12.1468480040       20.8914607629        6.6732864150
  O        13.1047255533       18.6142426261        5.3262079955
  O        13.9551941417       16.9863041509        6.6653493459
  O        29.9149987487       14.5859343507       10.8327998841
  O        28.0830805419       14.6557953372        9.4905376337
  O        32.0698936812       16.8590675701        7.9926654626
  O        30.9540534539       20.9504554574       10.3273242715
  O        32.9544961599       20.5879183032        9.3163232016
  O        29.5666255968       17.0775509576        9.4990160017
  O        30.8820616066       20.8073116208        5.4995384993
  O        32.8493884061       20.5833427688        6.6441540773
  O        31.6133987163       18.2267465127        5.8347031149
  O        28.2552079145       18.6305778537        7.9900340735
  O        32.4810054270       14.2144306157        9.3092094723
  O        32.4001930702       14.2180616209        6.8180819393
  O        29.8465948010       14.4237072288        5.4853613184
  O        27.9630132524       14.5823895478        6.7456676476
  O        17.8890224489        1.9665353533       10.6630466161
  O        18.9560434265        3.5272320809        9.4081901165
  O        39.1684077243       34.1386333645        7.9971722582
  O        43.2804049639       33.0589702509       10.3317414016
  O        42.0350302769       31.5062781025        9.2415360213
  O        20.3171773360        1.0358821449        9.4807994976
  O        43.2762343480       33.1822686266        5.5748337790
  O        42.0053922085       31.5839071655        6.5830415798
  O        40.5792737832       33.7748483348        5.9364165457
  O        22.3668199055        1.3840787933        7.9982041083
  O        36.6725291660       35.0997512926        9.2334610849
  O        16.4451804293        0.0641723455        6.6682501680
  O        17.9362343516        2.0433150545        5.3262838388
  O        18.9188276528        3.5932065877        6.6658900612
  O        29.6514093425       18.6891910451        3.8389724489
  O        29.6604585609       18.9760278817       11.9106001298
  O        31.1354476323       16.2620407153        3.9920805060
  O        31.4758016063       16.4049995067       12.0015279719
  O        29.3523111033       18.3117357398       14.6791656301
  O        39.4568762354       35.2438252658        4.0018364071
  O        19.1416360982        0.0047069329       11.9908923266
  O        41.9695461257       35.1722966828        4.0871905644
  O        21.6916004672       -0.0693640014       11.8960176868
  O        51.3648718170       18.6143966669        4.0052742713
  O        10.7509577058       18.7471580883       11.9050369369
  O        50.0793540703       16.4127793071        4.0917593198
  O         9.5247590127       16.4830580066       11.9911959629
 Zr         9.2967743395       16.0529229319        6.1821855404
 Zr        49.8363586586       16.0070260313        9.7466144714
 Zr        22.0719823157        0.0275206112        6.1903471796
 Zr        42.4596321244       35.1517618977        9.8005009121
 Zr        29.5738104794       19.0196937668        6.1252509676
 Zr        29.5630243034       19.1928169505        9.7508852112
 Zr        11.0371329296       19.0527470819        9.8278298223
 Zr        11.0431101051       19.1555241237        6.2512041720
 Zr        31.3477810469       16.1145238349        9.7623160738
 Zr        31.3354793955       15.9902360070        6.1658234649
 Zr        18.5996422847       -0.0045743167        9.7640277730
 Zr        18.5054199308       -0.0099064519        6.2134748397
 Zr        12.3006064766       16.3231123461        7.9904893913
 Zr        48.6159028783       18.8333430524        8.0101675025
 Zr        20.3134808125        2.4703770240        7.9912045076
 Zr        40.6400277313       32.6842272802        7.9786191726
 Zr        28.3139993971       16.3280697621        8.0478482319
 Zr        32.6026091330       18.8477693685        7.9853891088
  H        30.7044144298       16.4364624404        1.2432082790
