     563
 i =      232, E =     -4695.0187388769
  C        11.8586638470       14.0534274482        5.7415318135
  C        12.4560483311       12.8904768027        5.0232411133
  C        11.7043744442       12.1716892207        4.0814522827
  C        12.2806938445       11.1094838980        3.3890727084
  C        13.6211700693       10.7394025097        3.6169809139
  C        14.3543232279       11.4428433032        4.5905682188
  C        13.7814736442       12.5077997706        5.2821375085
  C        14.2606111373        9.6487196893        2.8435437003
  C        14.2556664146        9.6565369129        1.4218382783
  C        13.7425091373       10.7586444378        0.6679049379
  C        49.1266191307       21.2333787506        5.8797793268
  C        48.5497497160       22.4012313772        5.1527308383
  C        49.2997327778       23.0684545876        4.1716213887
  C        48.7327569314       24.1074903064        3.4383294999
  C        47.4022691533       24.5092449371        3.6670701392
  C        46.6713796924       23.8604935535        4.6807179746
  C        47.2338677117       22.8156730127        5.4101580989
  C        46.7720060072       25.5868796501        2.8697562973
  C        46.7610480347       25.5572412384        1.4479968687
  C        47.2609355956       24.4421279858        0.7045036393
  C        14.8594412844        8.5701191294        0.7085543168
  C        14.8914913211        8.5968019694        3.5201583196
  C        49.1129454012       21.2034588327       10.1453110509
  C        48.5275266538       22.3647592354       10.8724384937
  C        49.2666599399       23.0252485786       11.8655828339
  C        48.6903294816       24.0597680810       12.5970705409
  C        47.3600383985       24.4568139880       12.3585897082
  C        46.6397683648       23.8121729406       11.3347874740
  C        47.2133139659       22.7763034387       10.6029527998
  C        46.7215813518       25.5317328904       13.1496412212
  C        46.7332692852       25.5280385229       14.5713467440
  C        47.2487051394       24.4288304490       15.3277414092
  C        40.6166587514       17.0785268292       15.3191619237
  C        40.6332261991       17.1195293432       12.5088457167
  C        11.8827969146       14.0863208027       10.2854777841
  C        12.4718090042       12.9103813093       10.9895937672
  C        11.7142163111       12.1775258140       11.9159292703
  C        12.2805568402       11.0949425690       12.5843180389
  C        13.6192220830       10.7207468488       12.3522968803
  C        14.3572216858       11.4359039154       11.3911978793
  C        13.7920406465       12.5172023569       10.7185174136
  C        14.2526476779        9.6239317947       13.1227306140
  C        14.2514368983        9.6439746113       14.5445709992
  C        13.7417889175       10.7530216208       15.2916492636
  C        22.5030472909        3.2424168232        5.7472943776
  C        23.1993480647        4.3460603685        5.0310289227
  C        24.1965998187        4.0652212517        4.0858359213
  C        24.8118607748        5.1039755828        3.3931153016
  C        24.4433780468        6.4435204287        3.6261119315
  C        23.4699498581        6.7160611322        4.6040686240
  C        22.8510229054        5.6793403602        5.2960492084
  C        25.0493000268        7.5496030920        2.8536191752
  C        25.0470080314        7.5386163582        1.4329846623
  C        24.3585286405        6.5361535417        0.6792638983
  C        38.3009196394       31.9266799205        5.8483401682
  C        37.5672411286       30.8369288450        5.1394742261
  C        36.6060083303       31.1422179425        4.1632708669
  C        35.9825288542       30.1236987029        3.4469195486
  C        36.3038568389       28.7724928426        3.6837647626
  C        37.2357345839       28.4746979495        4.6962949741
  C        37.8635529697       29.4921373868        5.4115469197
  C        35.6947335308       27.6823274696        2.8859499120
  C        35.7289173134       27.6957343605        1.4638873207
  C        36.4390656788       28.6952855660        0.7268492579
  C        25.6811248558        8.6077570174        0.7221798213
  C        25.6283378736        8.6282968506        3.5324146423
  C        38.3276234565       31.9604006022       10.1570789090
  C        37.6045701916       30.8862067842       10.8987766558
  C        36.6748621139       31.1939908957       11.9041041804
  C        36.0620276367       30.1753732024       12.6319077078
  C        36.3635236954       28.8218519196       12.3791011728
  C        37.2713271371       28.5241357355       11.3439779040
  C        37.8863772505       29.5393329329       10.6174024782
  C        35.7514630110       27.7226452480       13.1623845772
  C        35.7580989008       27.7161768943       14.5850428218
  C        36.4523347492       28.7055706886       15.3499610656
  C        46.1352538735       26.6206728426       15.2814798247
  C        46.0876665295       26.5801146573       12.4735865532
  C        22.4658961241        3.2538280761       10.2507524636
  C        23.1739656419        4.3601388843       10.9602759200
  C        24.1842022042        4.0697389675       11.8907951552
  C        24.8228896438        5.0979896810       12.5787085779
  C        24.4698928823        6.4439812969       12.3581168373
  C        23.4852846935        6.7278295045       11.3935290646
  C        22.8424085868        5.6998759112       10.7052916678
  C        25.0998288016        7.5383834402       13.1361042527
  C        25.0728586452        7.5324603816       14.5577078015
  C        24.3677405889        6.5353695813       15.3030058249
  C        26.5582648142       17.8252750878        5.7873016379
  C        25.2589031159       17.8877038294        5.0600318231
  C        25.0057257569       18.8999908162        4.1214645229
  C        23.7983224437       18.9279822346        3.4279656341
  C        22.8115929649       17.9479449332        3.6542455095
  C        23.0597096338       16.9593208303        4.6246299700
  C        24.2687213657       16.9255648583        5.3154530351
  C        21.5459534338       17.9408792288        2.8827229332
  C        21.5549321103       17.9329988100        1.4609506449
  C        22.7651603684       17.8194239841        0.7064045905
  C        34.4165556423       17.2127363186        5.9143079053
  C        35.7119873046       17.1439865851        5.1756570384
  C        35.9077833949       16.1718671595        4.1822620306
  C        37.0910728622       16.1434984374        3.4487640463
  C        38.1099512244       17.0872941147        3.6854695385
  C        37.9162092868       18.0390603526        4.7051775986
  C        36.7316561926       18.0715519522        5.4378670797
  C        39.3643443332       17.0878917105        2.8968700773
  C        39.3596382814       17.0949599475        1.4743108879
  C        38.1520254169       17.2093860883        0.7159678391
  C        20.3113804976       17.9530256295        0.7484759905
  C        20.3202940004       17.9342864053        3.5610280054
  C        34.4437028707       17.2449695133       10.1836805032
  C        35.7439718418       17.1455520219       10.9093424581
  C        35.9667806357       16.1422146015       11.8649304091
  C        37.1548479688       16.1141695778       12.5916728575
  C        38.1528185868       17.0855678825       12.3799255918
  C        37.9384412967       18.0614722506       11.3885425932
  C        36.7484313564       18.0962348725       10.6672384603
  C        39.4022217879       17.0972303087       13.1746388016
  C        39.3789648297       17.0989626924       14.5960754884
  C        38.1611859699       17.2083669953       15.3389872843
  C        35.1229187306       26.6390305443       15.2885580797
  C        35.1602984955       26.6521496495       12.4788187978
  C        26.5653496432       17.8263140015       10.3272394933
  C        25.2516811279       17.8792366394       11.0291573350
  C        24.9786343534       18.9038977799       11.9476035412
  C        23.7605939633       18.9339307373       12.6199615377
  C        22.7875122607       17.9409238728       12.3938562955
  C        23.0534227651       16.9415132513       11.4407320109
  C        24.2729003838       16.9080251051       10.7683030135
  C        21.5228751671       17.9285912822       13.1637269280
  C        21.5424366109       17.9252057521       14.5847333924
  C        22.7592360753       17.8154066404       15.3299555233
  C        14.0452202188       17.8318898099       10.2841167086
  C        15.3513360850       17.8965055436       11.0013563693
  C        15.6099147519       18.9103203645       11.9365814943
  C        16.8203816654       18.9371558135       12.6252512702
  C        17.8032425090       17.9528162554       12.3995876571
  C        17.5505385581       16.9644736674       11.4301696955
  C        16.3396451578       16.9333079272       10.7427122651
  C        19.0691390520       17.9381778294       13.1701496831
  C        19.0612164459       17.9371956449       14.5917010478
  C        17.8502111732       17.8383565855       15.3465928084
  C        46.8025774571       17.2180181825       10.1592680685
  C        45.5107229573       17.1520872735       10.9045781285
  C        45.3054746126       16.1703430696       11.8866693305
  C        44.1227013449       16.1453267264       12.6215398098
  C        43.1130521294       17.1021024578       12.3978418870
  C        43.3158192779       18.0639622786       11.3893568142
  C        44.4993949319       18.0926315321       10.6550535247
  C        41.8584235534       17.1050117150       13.1867926349
  C        41.8633842871       17.0983371523       14.6094524455
  C        43.0718550624       17.1945707305       15.3689115567
  C        20.3047434649       17.9484347266       15.3044037322
  C        20.2945776655       17.9149125503       12.4919627446
  C        46.7827995176       17.2306148926        5.8884236786
  C        45.4781858142       17.1206413963        5.1732191991
  C        45.2599722492       16.1174023835        4.2164908982
  C        44.0707751806       16.0837065441        3.4917757553
  C        43.0684672709       17.0499960711        3.7059701310
  C        43.2773045009       18.0234878266        4.7009976731
  C        44.4677817244       18.0635070180        5.4208593517
  C        41.8204168394       17.0648313274        2.9093787531
  C        41.8440573327       17.0761217887        1.4879270582
  C        43.0625815572       17.1812734833        0.7457843386
  C        46.1530037284       26.6370910473        0.7262347588
  C        46.1621067110       26.6560406762        3.5358621456
  C        14.0399834081       17.8287540950        5.7064599113
  C        15.3537848909       17.8989549352        5.0065021632
  C        15.6224917479       18.9211138230        4.0843076487
  C        16.8464013363       18.9595258143        3.4215511238
  C        17.8260963296       17.9746733762        3.6566762997
  C        17.5630045554       16.9785137504        4.6140236789
  C        16.3413009964       16.9398466958        5.2807489255
  C        19.0920128296       17.9574943438        2.8889916077
  C        19.0733244550       17.9465128406        1.4680170662
  C        17.8561190976       17.8423942611        0.7228075191
  C        28.8102831265       14.0838142508       10.3650789743
  C        28.2144133518       12.9055533098       11.0534826353
  C        28.9430283433       12.1803445082       12.0074025710
  C        28.3523245296       11.1037701895       12.6643749811
  C        27.0213511775       10.7301335467       12.3892848887
  C        26.3160767525       11.4359286088       11.3981847315
  C        26.9031946055       12.5128068603       10.7408226323
  C        26.3539274721        9.6487212529       13.1482119554
  C        26.3230592217        9.6767516637       14.5685489859
  C        26.8187015760       10.7895668151       15.3196975217
  C        32.1782181220       21.2390190684       10.1094617700
  C        32.7649236688       22.4031399551       10.8386196969
  C        32.0130914067       23.0759597402       11.8146122978
  C        32.5808317153       24.1119760990       12.5515268700
  C        33.9155922428       24.5062448662       12.3331660013
  C        34.6494737138       23.8513579417       11.3255711896
  C        34.0854325959       22.8090233059       10.5920923097
  C        34.5420330171       25.5826080616       13.1370471445
  C        34.5310640712       25.5554550145       14.5592872100
  C        34.0207419148       24.4414760498       15.2978300346
  C        25.7005145970        8.6003901219       15.2786593754
  C        25.7251323596        8.5981942080       12.4673303042
  C        32.0710574933       21.1909404559        5.8412956235
  C        32.6514808985       22.3582507159        5.1108851039
  C        31.9245649317       23.0114260794        4.1034174316
  C        32.5024586489       24.0533990523        3.3807420579
  C        33.8229121619       24.4707443780        3.6422295603
  C        34.5300242259       23.8328667250        4.6798232086
  C        33.9561998411       22.7887578768        5.4006446868
  C        34.4686483251       25.5522038565        2.8607085498
  C        34.4932126377       25.5403549607        1.4380578189
  C        34.0018251817       24.4346264090        0.6747415429
  C        40.6062623852       17.0716681935        0.7645782384
  C        40.5893515360       17.0885187214        3.5747898617
  C        28.6783271945       14.0335160968        5.8242269624
  C        28.0606338046       12.8945271481        5.0854689115
  C        28.8110558583       12.1746444434        4.1431510015
  C        28.2294844301       11.1287875696        3.4333306153
  C        26.8828051280       10.7747847466        3.6451950765
  C        26.1476150842       11.4793954394        4.6161472223
  C        26.7274294376       12.5290864454        5.3259516153
  C        26.2506554068        9.6879974659        2.8628408874
  C        26.2718517143        9.6969178416        1.4420369185
  C        26.7924942311       10.8001479379        0.6954084055
  C        18.1352414044        3.1808732939       10.3172377001
  C        17.4056400941        4.2779765720       11.0157821915
  C        16.3897286748        3.9994018412       11.9430223746
  C        15.7417364504        5.0392517670       12.6064648071
  C        16.0935764182        6.3830183346       12.3669821048
  C        17.0831295235        6.6527612959       11.4034665362
  C        17.7324926252        5.6155493206       10.7384645641
  C        15.4690881946        7.4906122816       13.1300494315
  C        15.4844020959        7.4899651552       14.5517600265
  C        16.1861033120        6.4964286203       15.3048888956
  C        42.9457507577       31.8594995289       10.0728359915
  C        43.6461320145       30.7717696595       10.8167774869
  C        44.5916372249       31.0931044432       11.8028532006
  C        45.1973239111       30.0875620237       12.5505416034
  C        44.8708915375       28.7345132363       12.3356387823
  C        43.9450492270       28.4201571155       11.3224521996
  C        43.3362536639       29.4253069427       10.5744025574
  C        45.4884076042       27.6552027676       13.1388591332
  C        45.4925531274       27.6808028372       14.5605536175
  C        44.8054667608       28.6888615797       15.3071645924
  C        14.8554941477        8.5624953128       15.2641210926
  C        14.8737928900        8.5623514032       12.4514518147
  C        42.9464596144       31.9616152888        5.8090429924
  C        43.6916141056       30.8854135092        5.0955030191
  C        44.6563304190       31.1913099161        4.1233366178
  C        45.2777235688       30.1717123516        3.4055009185
  C        44.9538095800       28.8214265160        3.6430633458
  C        44.0201203462       28.5237673405        4.6536432164
  C        43.3919929211       29.5405481185        5.3659213149
  C        45.5627959348       27.7240100514        2.8577967764
  C        45.5330481793       27.7172670579        1.4365051326
  C        44.8267565335       28.7075212880        0.6835573861
  C        35.1058833515       26.6300727786        0.7343876481
  C        35.0815672919       26.6101014856        3.5448367558
  C        18.1483801077        3.2468010428        5.7065613021
  C        17.4298621460        4.3435917746        4.9970534107
  C        16.4144583003        4.0523109341        4.0737177129
  C        15.7661238429        5.0829351628        3.3983318209
  C        16.1208290202        6.4281694764        3.6209570956
  C        17.1124991025        6.7115705364        4.5779012688
  C        17.7601505642        5.6826652499        5.2576992835
  C        15.4902270104        7.5238364548        2.8485450182
  C        15.4958289379        7.5070935349        1.4274106472
  C        16.1925268446        6.5053581973        0.6806993097
  H        10.6723275162       12.4660081648        3.9042874436
  H        11.6944077164       10.5510944039        2.6624649820
  H        15.3912833380       11.1680659050        4.7724420990
  H        14.3509491425       13.0708412970        6.0177077409
  H        13.3757552159       11.6308971000        1.2011790774
  H        50.3224027326       22.7483414274        3.9868070034
  H        49.3192021577       24.6226918139        2.6806767860
  H        45.6419499452       24.1614134548        4.8640043737
  H        46.6629077314       22.2905422316        6.1723673064
  H        47.6295127264       23.5757657523        1.2461854543
  H        14.8720653826        8.5881368835        4.6084707908
  H        50.2865968464       22.7021719759       12.0606861143
  H        49.2686606831       24.5750559225       13.3607321240
  H        45.6104981545       24.1097242146       11.1454790009
  H        46.6525865426       22.2543799917        9.8311587773
  H        47.6074937810       23.5516979022       14.7968741614
  H        40.6387326026       17.0949332948       11.4207493804
  H        48.6871171252       14.0951091357        7.8000119481
  H        10.6808857065       12.4669714179       12.0935169360
  H        11.6887318024       10.5247920869       13.2971788246
  H        15.3925444653       11.1576966918       11.2051263927
  H        14.3644904124       13.0863113236        9.9898709136
  H        13.3750802998       11.6216947178       14.7530307052
  H        47.9300952037       14.2185005522        9.7108776331
  H        47.7799979777       14.3741257305        6.4954242943
  H        49.0828444539       18.5523116627       10.8672345195
  H        10.4160171285       14.1343160638        7.9988194001
  H        24.4683142872        3.0273218904        3.9069970934
  H        25.5884794460        4.8888011251        2.6624262258
  H        23.1785971035        7.7482071282        4.7871274859
  H        22.0790200882        5.8775911442        6.0354303925
  H        23.7906556689        5.7795491891        1.2128939608
  H        36.3716886876       32.1859660224        3.9676109038
  H        35.2374922482       30.3665164251        2.6923856821
  H        37.4929519596       27.4349625738        4.8879281460
  H        38.6079110625       29.2674765006        6.1718922549
  H        37.0048479842       29.4442129586        1.2733807850
  H        25.6434401901        8.6148602586        4.6206696642
  H        36.4526442675       32.2381007087       12.1127840565
  H        35.3358166281       30.4215407328       13.4034570709
  H        37.5174470328       27.4839908974       11.1406973995
  H        38.6091675503       29.3125056618        9.8374127981
  H        37.0293641978       29.4619714227       14.8257841709
  H        46.1091250566       26.5875700416       11.3855510276
  H        44.6682446324       35.1162573267        7.8141847318
  H        24.4573795120        3.0302073852       12.0570241440
  H        25.6079292660        4.8682274721       13.2959935617
  H        23.2034477694        7.7635974739       11.2154951282
  H        22.0649882940        5.9139577472        9.9755686766
  H        23.8063085036        5.7786260895       14.7629486309
  H        44.9536121274       34.3897987730        9.6946695995
  H        44.9019347389       34.2068601066        6.4907859225
  H        40.6654386818       33.2084317703       10.8529005058
  H        23.1498073552        1.9579870696        8.0023989029
  H        25.7633330211       19.6616460399        3.9520334973
  H        23.6035251262       19.7170056725        2.7048335338
  H        22.3064328541       16.1951999344        4.8050878997
  H        24.4756166601       16.1495743334        6.0486589418
  H        23.7045716163       17.7016477380        1.2388507523
  H        35.1138158429       15.4532817649        3.9921201897
  H        37.2408544139       15.3813077297        2.6872104350
  H        38.6934300819       18.7769401128        4.8931687072
  H        36.5672216272       18.8221748881        6.2075218604
  H        37.2118156503       17.3309502160        1.2463446439
  H        20.3229301508       17.9631899592        4.6491781465
  H        35.1959898017       15.3934290080       12.0332143952
  H        37.3239084721       15.3338299657       13.3305663779
  H        38.7021402512       18.8175405625       11.2182053895
  H        36.5632174197       18.8678016619        9.9237484548
  H        37.2276722782       17.3276684287       14.7964760218
  H        35.1350881670       26.6780797894       11.3910190976
  H        28.5032183920       21.0774139327        7.8839139853
  H        25.7320670501       19.6696208699       12.1165472266
  H        23.5478272793       19.7300952468       13.3300601179
  H        22.3084524013       16.1688620873       11.2622350129
  H        24.4967000209       16.1245845333       10.0482822137
  H        23.6940226170       17.6952246185       14.7901065930
  H        29.0089712056       21.7120263465        9.7374097631
  H        29.1991393108       21.6989903401        6.5517017253
  H        32.1034569993       18.6271717065       10.8902669505
  H        27.3706724286       19.0266662208        8.0759636382
  H        14.8515238903       19.6707633608       12.1085477652
  H        17.0196068799       19.7273989538       13.3458833639
  H        18.3012872144       16.1981058272       11.2486670791
  H        16.1297562797       16.1576040071       10.0101954984
  H        16.9101408602       17.7256061042       14.8145116428
  H        46.0901772948       15.4394978531       12.0676444805
  H        43.9663774557       15.3753595252       13.3739167223
  H        42.5460626693       18.8119869221       11.2109311847
  H        44.6699541886       18.8500557584        9.8934634385
  H        44.0133627050       17.3119904926       14.8400032022
  H        20.2926395580       17.9393246980       11.4037154314
  H        46.0382626852       15.3780072913        4.0417812654
  H        43.9060462295       15.3046203345        2.7506002203
  H        42.5095379271       18.7748263663        4.8737826540
  H        44.6485768821       18.8344219096        6.1659849087
  H        43.9972182722       17.2871097143        1.2889840912
  H        46.1989727776       26.6826349790        4.6233048153
  H        52.7412439867       21.0626559465        8.1946290358
  H        14.8629880435       19.6789851795        3.9057510076
  H        17.0574966207       19.7552949553        2.7104716032
  H        18.3125901740       16.2120653061        4.7997603077
  H        16.1207104228       16.1602493958        6.0058192798
  H        16.9205221706       17.7327936336        1.2630035414
  H        52.3224973357       21.6736958069        6.2946805099
  H        52.0136454277       21.7026861507        9.4954537988
  H        49.0671756147       18.6077037639        5.2042788747
  H        13.2472607521       19.0163114022        7.9760508996
  H        29.9666629788       12.4798081133       12.2215105743
  H        28.9164010580       10.5400020440       13.4042427546
  H        25.2876802444       11.1559151996       11.1796907769
  H        26.3559810554       13.0805955792        9.9924893105
  H        27.1934956384       11.6568144040       14.7841809328
  H        30.9867609545       22.7621497977       11.9903190561
  H        31.9915409054       24.6316053888       13.3039517850
  H        35.6823741860       24.1449036340       11.1496778699
  H        34.6595753230       22.2798265165        9.8349887308
  H        33.6686482538       23.5708860895       14.7518169506
  H        25.7669239620        8.5793613728       11.3797222412
  H        30.9107316260       22.6797430881        3.8907687214
  H        31.9304032273       24.5595676241        2.6062016836
  H        35.5517373742       24.1422649831        4.8901930156
  H        34.5105342189       22.2753457404        6.1826752409
  H        33.6355026957       23.5582206739        1.2017943890
  H        40.5834289880       17.0556491570        4.6626461235
  H        32.5142877140       14.1463907074        8.2449382191
  H        29.8525502185       12.4452529432        3.9874149729
  H        28.8162154377       10.5666634304        2.7100846411
  H        25.1054853498       11.2154876131        4.7841007799
  H        26.1587352498       13.0916763083        6.0626035883
  H        27.1461116348       11.6753480673        1.2329252907
  H        33.2985302676       14.2257572553        6.4396602481
  H        33.4069129407       14.3999357965        9.5998841285
  H        32.0634409733       18.4830614971        5.0910110775
  H        30.2035203166       14.1380929002        8.0762775650
  H        16.1177592395        2.9628442629       12.1292542070
  H        14.9521817947        4.8197253384       13.3219624746
  H        17.3656048936        7.6856721434       11.2106019239
  H        18.5147080320        5.8183679376       10.0108528722
  H        16.7526734746        5.7391269006       14.7713511332
  H        44.8279054976       32.1401960389       11.9770099500
  H        45.9371936278       30.3413134155       13.3064855861
  H        43.6823538732       27.3780878273       11.1523419772
  H        42.5996375215       29.1900209620        9.8097208640
  H        44.2301710223       29.4366592902       14.7688366663
  H        14.8501071011        8.5455899050       11.3632309338
  H        44.8999426721       32.2339912464        3.9319625033
  H        46.0247315159       30.4129121254        2.6523546479
  H        43.7630034747       27.4840543905        4.8450824485
  H        42.6453163624       29.3178278166        6.1242160855
  H        44.2682856998       29.4704277710        1.2181548824
  H        35.0352757811       26.6243033538        4.6321793373
  H        36.6052767838       35.1338127424        8.1807078060
  H        16.1433431726        3.0127286850        3.9040714509
  H        14.9736467981        4.8560942939        2.6884190812
  H        17.3961565841        7.7470225829        4.7546397679
  H        18.5431470117        5.8931322925        5.9823319176
  H        16.7641370463        5.7552363788        1.2191140412
  H        36.2788847139       34.4819131788        6.2732483009
  H        36.3809036032       34.2090683308        9.4997940853
  H        40.5797882373       33.2023795018        5.1538266179
  H        17.4706613315        1.9471584203        7.9739820595
  H        28.8168883311       18.9354566866       12.3046555375
  H        28.6570079967       18.7811814888        3.8111802841
  H        30.8561011991       15.3217603827        3.7768981319
  H        32.3756249577       16.5120062484       12.2440140892
  H        29.6829693529       19.1220545326       14.7630312137
  H        18.8540844522        0.8692075894       12.3351257289
  H        40.5283195797       35.2289634795        3.9521528832
  H        42.3238313632       34.4190768212        3.5901936358
  H        22.0873256187        0.6923027791       12.3516367771
  H        11.5963113460       18.7128802964       12.3827216291
  H        52.2648185279       18.4313465945        3.6775810592
  H        49.2550453089       16.4765141691        3.5841804264
  H        10.1504526778       15.7983073706       12.2924591759
  H        50.8500055347       17.6927598169        3.9540018153
  H        10.0459374840       17.3948041861       12.0519116824
  H        20.2154936265        0.0021790945       12.0418523292
  H        39.1836995385       36.1244203199        3.6865715197
 Ni        30.2676047586       17.4279345800        2.7522960443
 Ni        31.2875020906       16.2964110958       -1.0818810023
 Ni        29.9761172505       17.3520117504        0.4120502118
 Ni        30.3954929419       17.4479068743       13.2426843770
  O        10.6498684802       14.3651964762        5.4857989677
  O        12.6130511024       14.6574052787        6.5839009942
  O        49.1475824317       16.8459369478        7.9897109884
  O        50.3500947593       20.9362555230        5.6482428087
  O        48.3484644913       20.5932312097        6.6659882204
  O        11.0509457136       17.0540525824        6.5006638083
  O        50.3206909830       20.8816806136       10.4068798855
  O        48.3465708024       20.5866788292        9.3270472480
  O        49.5432214909       18.2483969820       10.0683100088
  O        12.3587947904       18.6246746225        7.9997172874
  O        48.6931627454       14.1486481928        6.7512866036
  O         8.2098058842       14.2105063380        9.3225781526
  O        10.7352441038       14.5067963716       10.6643813215
  O        12.5716883413       14.5827297007        9.3285650750
  O        22.8441101958        2.0423067786        5.4877542865
  O        21.6034610357        3.5912028017        6.5906856809
  O        42.0579993619       34.1370989808        7.9790649645
  O        37.9812825228       33.1352875800        5.5719341919
  O        39.2175124143       31.5749235500        6.6656565556
  O        20.3083103617        1.0395678831        6.5018472689
  O        38.0240518009       33.1844608622       10.4157398023
  O        39.2184372376       31.5829812111        9.3271268170
  O        40.6521616792       33.7690356954       10.0602261374
  O        18.2555359476        1.3762632373        7.9967813482
  O        44.6222280076       35.1005532021        6.7588661107
  O        24.2055233508       -0.0001665041        9.3207372359
  O        22.7529612211        2.0561739530       10.5826377218
  O        21.6240082429        3.5950570024        9.3413253838
  O        27.4578674278       18.6937297441        5.4879810469
  O        26.6892661917       16.9184275197        6.6694087791
  O        30.6287934454       19.3477732049        7.9976541102
  O        33.5399681226       16.3260184559        5.6579375150
  O        34.2673270494       18.1790929569        6.7424043652
  O        29.5320332361       17.0060352873        6.5745239878
  O        33.5540269612       16.3434908395       10.4223619894
  O        34.2984917501       18.2380774813        9.4023226680
  O        31.6493978343       18.3209084580       10.0889973812
  O        30.2897936088       15.1050244213        8.0757906552
  O        28.5514615645       21.0255714704        6.8304889306
  O        28.5103143419       20.9502978002        9.3966679978
  O        27.4562556473       18.6792834609       10.6582756043
  O        26.6897391918       16.9290715967        9.4178755758
  O        13.1465494593       18.6937877992       10.5861883562
  O        13.9178258091       16.9159919405        9.4039948253
  O        50.5957136617       19.3502829255        8.0206653880
  O        47.6819918615       16.3273852265       10.4176887359
  O        46.9499013145       18.1756789897        9.3257371018
  O        11.0688817226       17.0159356616        9.4895634700
  O        47.6744863554       16.3359101814        5.6527933159
  O        46.9247143582       18.2359039263        6.6631514773
  O        49.5686796428       18.3177575344        5.9822980169
  O        10.3186885621       15.1001650752        7.9970938240
  O        52.6707379341       21.0280312575        9.2418180519
  O        12.1468172488       20.8914248485        6.6733376551
  O        13.1047387270       18.6142653430        5.3262610301
  O        13.9552954178       16.9865246431        6.6653810000
  O        29.9983140765       14.4399586645       10.6680082825
  O        28.0732243567       14.6546749784        9.4895423121
  O        32.0702838607       16.8530079673        8.0618828656
  O        30.9575553400       20.9505843441       10.3386825917
  O        32.9550845084       20.5908487986        9.3238141480
  O        29.5597956830       17.0631237799        9.5704141910
  O        30.8523236344       20.8735290927        5.5850823844
  O        32.8529819741       20.5839902013        6.6532978053
  O        31.6084294482       18.2362868888        5.9129052731
  O        28.2561530113       18.6280031652        8.0645228514
  O        32.4919379742       14.2121856054        9.3229576286
  O        32.4041006229       14.2142936188        6.8198493848
  O        29.8683546616       14.3682035644        5.4994719116
  O        27.9680645428       14.5809868913        6.7421835187
  O        17.8891413091        1.9664971632       10.6628710610
  O        18.9560672497        3.5271524042        9.4081339274
  O        39.1684547398       34.1386001091        7.9971908238
  O        43.2801919402       33.0588573743       10.3316987293
  O        42.0343763722       31.5064451629        9.2415978666
  O        20.3172355124        1.0361078265        9.4803268823
  O        43.2761456110       33.1825196677        5.5749029332
  O        42.0052527313       31.5841101691        6.5830067775
  O        40.5790403747       33.7750727027        5.9359470133
  O        22.3670667132        1.3842400864        7.9980574517
  O        36.6727826036       35.0996809858        9.2333408463
  O        16.4456404181        0.0639752111        6.6682021217
  O        17.9363533524        2.0431393567        5.3263617414
  O        18.9187025102        3.5931526164        6.6658571067
  O        29.6153514372       18.7562833827        4.0019117937
  O        29.7372218168       18.8373705951       11.9917109499
  O        31.1737196498       16.1934703024        4.0761364840
  O        31.4303526215       16.3436411972       12.0756066416
  O        29.4403806555       18.1768678059       14.7507886423
  O        39.4568419246       35.2437558806        4.0020201623
  O        19.1418648590        0.0046505759       11.9905181119
  O        41.9693873620       35.1727002005        4.0871499047
  O        21.6913118373       -0.0693959464       11.8961045496
  O        51.3648268285       18.6144257301        4.0052485632
  O        10.7505900869       18.7472426559       11.9050426636
  O        50.0793166954       16.4127303166        4.0917462422
  O         9.5243521027       16.4830974481       11.9912359192
 Zr         9.2970424302       16.0528792645        6.1822231731
 Zr        49.8364170833       16.0069047081        9.7465893397
 Zr        22.0733626170        0.0298116967        6.1893169715
 Zr        42.4609260849       35.1535040449        9.8010403728
 Zr        29.5637469886       19.0392852342        6.2339962875
 Zr        29.5677667666       19.1699477059        9.8327143212
 Zr        11.0376455581       19.0523656313        9.8278198508
 Zr        11.0436519632       19.1551403765        6.2511520865
 Zr        31.3214339524       16.0851742103        9.8488534677
 Zr        31.3466862967       15.9821839891        6.2528704155
 Zr        18.6011439570       -0.0016280401        9.7637127704
 Zr        18.5066298656       -0.0079511768        6.2135503287
 Zr        12.3014417458       16.3232913779        7.9905424865
 Zr        48.6162399080       18.8329608992        8.0101914532
 Zr        20.3144977706        2.4731648053        7.9909394975
 Zr        40.6430189584       32.6870014339        7.9781340950
 Zr        28.3149003567       16.3133381169        8.0832546154
 Zr        32.6001157097       18.8293213489        8.0208644400
  H        30.5258489102       16.3874268252        1.5125621404
