     563
 i =      477, E =     -4695.0249242881
  C        11.8586545932       14.0534239984        5.7415237876
  C        12.4560566996       12.8904769659        5.0232209799
  C        11.7043612024       12.1716594289        4.0814732638
  C        12.2806698055       11.1094074011        3.3891518044
  C        13.6212024102       10.7394515656        3.6169330596
  C        14.3543702412       11.4429253809        4.5904810876
  C        13.7815439483       12.5079333119        5.2819921433
  C        14.2606178716        9.6487284217        2.8435266395
  C        14.2556770573        9.6565316565        1.4218227738
  C        13.7425008492       10.7586390393        0.6678999654
  C        49.1266089773       21.2333360175        5.8797294462
  C        48.5497482994       22.4012068138        5.1526961087
  C        49.2997384449       23.0684227625        4.1715915758
  C        48.7327873134       24.1075129933        3.4383582412
  C        47.4022840068       24.5092369666        3.6670609297
  C        46.6713900252       23.8604750691        4.6806962894
  C        47.2338474255       22.8156005215        5.4100826017
  C        46.7720176473       25.5868736965        2.8697498428
  C        46.7610481495       25.5572439564        1.4479913523
  C        47.2609830030       24.4421508051        0.7044977393
  C        14.8594461704        8.5701065205        0.7085447380
  C        14.8915006732        8.5968213973        3.5201536910
  C        49.1129532197       21.2034594310       10.1453033608
  C        48.5275659464       22.3648286632       10.8723734731
  C        49.2666975921       23.0253177028       11.8655157226
  C        48.6903804682       24.0598503411       12.5970004446
  C        47.3600619380       24.4568389379       12.3585753256
  C        46.6397815500       23.8122031863       11.3347749291
  C        47.2133271927       22.7763214542       10.6029528942
  C        46.7215937481       25.5317506550       13.1496401265
  C        46.7332939154       25.5280616619       14.5713458510
  C        47.2487211846       24.4288467969       15.3277352277
  C        40.6166479418       17.0803648307       15.3193198273
  C        40.6332777939       17.1211643236       12.5090317980
  C        11.8828008037       14.0863535053       10.2855001363
  C        12.4718188888       12.9103911052       10.9895988077
  C        11.7142024808       12.1774716462       11.9158620914
  C        12.2805525871       11.0948860643       12.5842460250
  C        13.6192535097       10.7207757963       12.3523021002
  C        14.3572932158       11.4360234593       11.3913041252
  C        13.7921037633       12.5173216789       10.7186299009
  C        14.2526707263        9.6239506908       13.1227322523
  C        14.2514708314        9.6439916084       14.5445707984
  C        13.7417730267       10.7530193234       15.2916444784
  C        22.5029968964        3.2422653727        5.7474425077
  C        23.1994311938        4.3458137019        5.0313222117
  C        24.1963094283        4.0647474873        4.0858331438
  C        24.8117567510        5.1034192592        3.3932150103
  C        24.4437769930        6.4429740227        3.6267735750
  C        23.4707313352        6.7157483892        4.6050159808
  C        22.8515934321        5.6790938301        5.2968422246
  C        25.0496813890        7.5490236657        2.8543790436
  C        25.0465986835        7.5385182390        1.4337669180
  C        24.3575292144        6.5364775412        0.6800142726
  C        38.3009388900       31.9266932474        5.8483032844
  C        37.5671715191       30.8370284040        5.1394044846
  C        36.6061441129       31.1425139540        4.1630566854
  C        35.9824785427       30.1241174756        3.4467068647
  C        36.3033440692       28.7728308647        3.6837387441
  C        37.2350563569       28.4748554981        4.6963748631
  C        37.8630972511       29.4921794683        5.4116110585
  C        35.6938311348       27.6828252199        2.8859953930
  C        35.7278383948       27.6961814362        1.4639210472
  C        36.4385032363       28.6953097993        0.7267902612
  C        25.6804898081        8.6078151146        0.7230553471
  C        25.6292948221        8.6272779324        3.5333213642
  C        38.3275618117       31.9602792998       10.1571019847
  C        37.6044691609       30.8860271572       10.8987726265
  C        36.6747307071       31.1937835254       11.9040949633
  C        36.0618197306       30.1751652320       12.6318506753
  C        36.3631713015       28.8216017483       12.3790080546
  C        37.2710065149       28.5239064284       11.3438935057
  C        37.8861523091       29.5391212264       10.6173713199
  C        35.7509092496       27.7224851395       13.1623477999
  C        35.7571972341       27.7162850321       14.5850246937
  C        36.4518018855       28.7054670196       15.3499017151
  C        46.1352485550       26.6206786461       15.2814816656
  C        46.0876525746       26.5801249803       12.4735949388
  C        22.4657672489        3.2539341007       10.2508503413
  C        23.1733554131        4.3605126319       10.9605971253
  C        24.1833133801        4.0705371459       11.8915431046
  C        24.8213820260        5.0990607797       12.5796501188
  C        24.4682102698        6.4449699742       12.3587499782
  C        23.4838811563        6.7283903450       11.3937469808
  C        22.8416063880        5.7001638093       10.7053248875
  C        25.0977510449        7.5395592151       13.1368618847
  C        25.0711763851        7.5333109278       14.5584780035
  C        24.3661629961        6.5361212506       15.3037577089
  C        26.5609048793       17.8269191289        5.7856701289
  C        25.2609606295       17.8898644080        5.0589947382
  C        25.0077861677       18.9009826254        4.1192693490
  C        23.7999129191       18.9287691394        3.4264809265
  C        22.8128275457       17.9495491322        3.6546572086
  C        23.0608736192       16.9622294615        4.6263208635
  C        24.2702878295       16.9287904600        5.3163931557
  C        21.5468471648       17.9413389583        2.8837288157
  C        21.5552382190       17.9302662565        1.4619791826
  C        22.7652283142       17.8157875043        0.7071430175
  C        34.4163218881       17.2127959201        5.9143791754
  C        35.7120104305       17.1438942975        5.1758097936
  C        35.9091145698       16.1701007077        4.1843396200
  C        37.0924309777       16.1418091173        3.4508414368
  C        38.1100459689       17.0873889509        3.6857006820
  C        37.9151658763       18.0407761639        4.7036202932
  C        36.7305880922       18.0731044738        5.4363082673
  C        39.3644367319       17.0882477617        2.8970475481
  C        39.3596658931       17.0951073708        1.4745054354
  C        38.1518731480       17.2077568106        0.7161825827
  C        20.3113958261       17.9483174660        0.7499811356
  C        20.3214706194       17.9359472408        3.5625517249
  C        34.4434888982       17.2447973087       10.1833305119
  C        35.7440820398       17.1456517116       10.9090195058
  C        35.9676023612       16.1417790059       11.8638208307
  C        37.1556180631       16.1139096893       12.5906919786
  C        38.1528987869       17.0861989430       12.3798837865
  C        37.9379385388       18.0626459794       11.3891907100
  C        36.7479506270       18.0971163933       10.6677582162
  C        39.4022450008       17.0982672150       13.1747549374
  C        39.3789445596       17.0996611145       14.5961967045
  C        38.1610019073       17.2069576290       15.3391875555
  C        35.1213949036       26.6395578515       15.2886462277
  C        35.1595689167       26.6519715911       12.4788870798
  C        26.5626420583       17.8255711593       10.3257195852
  C        25.2492109849       17.8762789761       11.0282341989
  C        24.9745071095       18.9012199127       11.9458376623
  C        23.7569106398       18.9291699704       12.6190693389
  C        22.7857881151       17.9339658307       12.3943701263
  C        23.0532541016       16.9341295785       11.4421487108
  C        24.2724082234       16.9026763380       10.7689562335
  C        21.5214791692       17.9205534990       13.1648201451
  C        21.5416183346       17.9178828469       14.5858144653
  C        22.7587780963       17.8096845972       15.3306735573
  C        14.0449157204       17.8313264353       10.2844958950
  C        15.3504910942       17.8941275588       11.0027220695
  C        15.6089084923       18.9055913023       11.9405107040
  C        16.8190658240       18.9303875887       12.6297852160
  C        17.8018401432       17.9464201274       12.4019635258
  C        17.5492154835       16.9604022584       11.4301627252
  C        16.3385913651       16.9311855998       10.7422680609
  C        19.0677846870       17.9301657834       13.1722371638
  C        19.0604030662       17.9291146335       14.5937787964
  C        17.8497841426       17.8300448589       15.3492670921
  C        46.8025880303       17.2181522160       10.1593581627
  C        45.5108000032       17.1526705190       10.9048119500
  C        45.3057598352       16.1719732617       11.8879879791
  C        44.1229918736       16.1475842959       12.6228996973
  C        43.1131531246       17.1039493385       12.3981644784
  C        43.3157589164       18.0647408125       11.3886345838
  C        44.4993559156       18.0928524427       10.6543658204
  C        41.8584745948       17.1072438164       13.1870165404
  C        41.8633801698       17.1010180995       14.6096623091
  C        43.0717810707       17.1982262878       15.3691223397
  C        20.3042036707       17.9414012242       15.3059409789
  C        20.2929779956       17.9066636916       12.4935351595
  C        46.7828426161       17.2306837694        5.8884300859
  C        45.4782290892       17.1209686899        5.1732477253
  C        45.2601559870       16.1184885450        4.2157056547
  C        44.0709465420       16.0852482100        3.4910095454
  C        43.0685256059       17.0512411065        3.7060292768
  C        43.2772164376       18.0239330099        4.7018565309
  C        44.4677337569       18.0635388080        5.4216455546
  C        41.8204777596       17.0663590984        2.9094980052
  C        41.8440790417       17.0782756293        1.4880660884
  C        43.0625348641       17.1846109003        0.7459783456
  C        46.1530139526       26.6371047250        0.7262364617
  C        46.1621102352       26.6560227193        3.5358689038
  C        14.0401628467       17.8290065881        5.7067901494
  C        15.3543853672       17.8997320063        5.0077741120
  C        15.6225196819       18.9204079448        4.0837832630
  C        16.8466192487       18.9585950623        3.4213784410
  C        17.8271536916       17.9751311072        3.6588431479
  C        17.5648336711       16.9809210635        4.6184293456
  C        16.3428637498       16.9423506033        5.2846254201
  C        19.0929070825       17.9569966153        2.8909614776
  C        19.0736401635       17.9426396254        1.4700343616
  C        17.8562290360       17.8361131593        0.7254751896
  C        28.8099120764       14.0838720266       10.3650873252
  C        28.2131732449       12.9063310944       11.0544796137
  C        28.9417028152       12.1802644337       12.0077814674
  C        28.3505478269       11.1040749602       12.6650022371
  C        27.0190794517       10.7316175469       12.3906426096
  C        26.3137382478       11.4383633011       11.4003453728
  C        26.9013463789       12.5149553108       10.7429055487
  C        26.3516397810        9.6500313746       13.1492745451
  C        26.3212324419        9.6776676119       14.5695732212
  C        26.8169825194       10.7903662513       15.3208999863
  C        32.1770317702       21.2373315439       10.1112450511
  C        32.7634118081       22.4022410338       10.8399782115
  C        32.0106981642       23.0777841905       11.8134050125
  C        32.5784441007       24.1141443042       12.5499152604
  C        33.9141105589       24.5063491261       12.3334900495
  C        34.6488975244       23.8490584895       11.3281449639
  C        34.0848122224       22.8063645372       10.5951753344
  C        34.5406643958       25.5828582051       13.1372215949
  C        34.5289469989       25.5562337927       14.5594664302
  C        34.0172486160       24.4429533829       15.2981450911
  C        25.6991205837        8.6010024281       15.2795485905
  C        25.7227965002        8.5996407226       12.4682260178
  C        32.0699108585       21.1904347473        5.8402294379
  C        32.6498909904       22.3585183308        5.1104082608
  C        31.9218856489       23.0141119295        4.1053144870
  C        32.4996054334       24.0563725466        3.3828913987
  C        33.8209938229       24.4718250527        3.6424964740
  C        34.5292200488       23.8318555188        4.6780115664
  C        33.9555221208       22.7873981421        5.3984699364
  C        34.4667256888       25.5533196669        2.8609380019
  C        34.4908040619       25.5415649133        1.4382807033
  C        33.9981328854       24.4363271652        0.6750641091
  C        40.6062843099       17.0731364340        0.7647307967
  C        40.5894194476       17.0894538157        3.5749551846
  C        28.6784886076       14.0332039994        5.8243564235
  C        28.0609717053       12.8939242783        5.0857472656
  C        28.8118607588       12.1730355642        4.1446228599
  C        28.2303404863       11.1270796272        3.4349205779
  C        26.8833824399       10.7738774892        3.6461238184
  C        26.1476965643       11.4794178307        4.6159349687
  C        26.7274701138       12.5292847042        5.3255105147
  C        26.2511776473        9.6871816242        2.8637867873
  C        26.2716154487        9.6966573541        1.4430310432
  C        26.7916424817       10.8003557279        0.6966358905
  C        18.1352245435        3.1808711950       10.3172503485
  C        17.4056400966        4.2779728245       11.0157922787
  C        16.3897291691        3.9994088817       11.9430357982
  C        15.7417477758        5.0392654629       12.6064753719
  C        16.0935920363        6.3830314222       12.3669719406
  C        17.0831765265        6.6527642540       11.4034813299
  C        17.7325242000        5.6155408287       10.7384840611
  C        15.4690837714        7.4906193544       13.1300350819
  C        15.4844101399        7.4899673546       14.5517483725
  C        16.1860840611        6.4964109960       15.3048807042
  C        42.9457589431       31.8595109531       10.0728315470
  C        43.6460857159       30.7717751309       10.8168044905
  C        44.5915942774       31.0930998124       11.8028833071
  C        45.1972652666       30.0875535280       12.5505738310
  C        44.8708357987       28.7345054932       12.3356772164
  C        43.9450347760       28.4201596913       11.3224523464
  C        43.3362470425       29.4253068771       10.5743917975
  C        45.4883836046       27.6552018491       13.1388752542
  C        45.4925317821       27.6808019482       14.5605660843
  C        44.8054452338       28.6888504086       15.3071872648
  C        14.8554803061        8.5624803263       15.2641135260
  C        14.8738262111        8.5623848821       12.4514397317
  C        42.9464297791       31.9616050179        5.8090038823
  C        43.6916221724       30.8854089504        5.0955148404
  C        44.6562817030       31.1912995735        4.1232877095
  C        45.2777359746       30.1716948982        3.4055252328
  C        44.9537934917       28.8214108848        3.6430578436
  C        44.0201973687       28.5237570614        4.6537237042
  C        43.3920003506       29.5405406709        5.3659372163
  C        45.5627944701       27.7239927520        2.8578106533
  C        45.5330573269       27.7172689935        1.4365209975
  C        44.8267252629       28.7074937878        0.6835778727
  C        35.1042241090       26.6307979146        0.7344933848
  C        35.0803003239       26.6108518338        3.5449975478
  C        18.1483807385        3.2468211721        5.7065534012
  C        17.4297776490        4.3435872017        4.9971099825
  C        16.4144947257        4.0522862500        4.0736482353
  C        15.7661049652        5.0829112772        3.3983119373
  C        16.1208152055        6.4281513360        3.6209355549
  C        17.1123470800        6.7115654361        4.5780234507
  C        17.7600491991        5.6826604042        5.2577689610
  C        15.4901757807        7.5238131784        2.8485477692
  C        15.4958110668        7.5070742791        1.4274103182
  C        16.1924972300        6.5053344206        0.6806925671
  H        10.6722688952       12.4658822110        3.9044057257
  H        11.6943818721       10.5509826168        2.6625709084
  H        15.3913756278       11.1682546790        4.7722568661
  H        14.3510292616       13.0710269269        6.0175164649
  H        13.3757427122       11.6308877450        1.2011798027
  H        50.3224329001       22.7483615620        3.9868210800
  H        49.3192310120       24.6227270557        2.6807140996
  H        45.6419479774       24.1613584603        4.8639669463
  H        46.6629056047       22.2904671757        6.1723042823
  H        47.6295498876       23.5757815746        1.2461748406
  H        14.8720792291        8.5881640445        4.6084664255
  H        50.2866622103       22.7022951903       12.0605635003
  H        49.2687147215       24.5751437350       13.3606565781
  H        45.6104908111       24.1097058823       11.1454992039
  H        46.6526067100       22.2543974794        9.8311519272
  H        47.6075415374       23.5517340142       14.7968569179
  H        40.6387902987       17.0964489273       11.4209386842
  H        48.6870971375       14.0951308233        7.8000016654
  H        10.6808354420       12.4668449143       12.0933632487
  H        11.6887100267       10.5246766832       13.2970467753
  H        15.3926527079       11.1578979517       11.2053134774
  H        14.3645709316       13.0864907588        9.9900423417
  H        13.3750690428       11.6216879147       14.7530139338
  H        47.9300865408       14.2185265913        9.7108801959
  H        47.7800012967       14.3741678952        6.4954100162
  H        49.0828567738       18.5523067610       10.8672292025
  H        10.4159875210       14.1343322970        7.9987999962
  H        24.4675390540        3.0267743181        3.9067158829
  H        25.5880864612        4.8882254014        2.6622272785
  H        23.1798464907        7.7479728149        4.7883626494
  H        22.0798293835        5.8773566903        6.0364619121
  H        23.7896603498        5.7798729002        1.2136479951
  H        36.3721271288       32.1863119058        3.9672949222
  H        35.2375815687       30.3670878027        2.6920827863
  H        37.4919246474       27.4350616770        4.8881703319
  H        38.6072974126       29.2673585980        6.1720677377
  H        37.0046565993       29.4440190350        1.2732440156
  H        25.6448744039        8.6134764668        4.6215586679
  H        36.4525229756       32.2378923459       12.1128033492
  H        35.3355973182       30.4213921416       13.4033715145
  H        37.5170427439       27.4837605036       11.1404975189
  H        38.6089034854       29.3122352257        9.8373565646
  H        37.0292215042       29.4615445527       14.8256846959
  H        46.1091147793       26.5875873562       11.3855599500
  H        44.6682205890       35.1162423078        7.8142167286
  H        24.4567183300        3.0311099284       12.0580667120
  H        25.6062136583        4.8695681862       13.2972463449
  H        23.2018565886        7.7640487527       11.2153634003
  H        22.0644461646        5.9139830550        9.9752488996
  H        23.8043096207        5.7797013103       14.7636828719
  H        44.9535803031       34.3898166487        9.6947018884
  H        44.9019086414       34.2068418086        6.4908244658
  H        40.6654027990       33.2083737924       10.8528576731
  H        23.1497662685        1.9579712596        8.0024730473
  H        25.7660172942       19.6616495633        3.9483110678
  H        23.6051192271       19.7168278877        2.7022907916
  H        22.3072819811       16.1987751222        4.8082727636
  H        24.4772407006       16.1537801396        6.0505959779
  H        23.7049069210       17.6993531421        1.2394371158
  H        35.1160740525       15.4500950563        3.9957422592
  H        37.2432619172       15.3784070942        2.6907039533
  H        38.6914923808       18.7799575115        4.8902038000
  H        36.5651414941       18.8249025050        6.2046044592
  H        37.2114807356       17.3275394156        1.2466474619
  H        20.3245626685       17.9673570125        4.6506318326
  H        35.1973062416       15.3923306310       12.0313096219
  H        37.3251273521       15.3331510345       13.3290473186
  H        38.7011326907       18.8193737816       11.2195050197
  H        36.5622601370       18.8690512828        9.9247584472
  H        37.2272838523       17.3244462789       14.7966688109
  H        35.1348569642       26.6774751260       11.3910623328
  H        28.5031158017       21.0741176059        7.8818022657
  H        25.7263032490       19.6688494398       12.1134519638
  H        23.5428581272       19.7254852565       13.3286135684
  H        22.3097757646       16.1597740282       11.2648053524
  H        24.4975514387       16.1190395887       10.0495463333
  H        23.6934218798       17.6894583820       14.7905794008
  H        29.0133809501       21.7094647423        9.7353298863
  H        29.2044764367       21.6949435647        6.5546803820
  H        32.1055891408       18.6194233327       10.8904540911
  H        27.3710608387       19.0253182468        8.0737594816
  H        14.8506922265       19.6658771154       12.1139404919
  H        17.0182906576       19.7188922013       13.3523114507
  H        18.2998758753       16.1943297985       11.2470513887
  H        16.1287085368       16.1572662322       10.0078772240
  H        16.9096151964       17.7157398976       14.8176839653
  H        46.0905652056       15.4414157930       12.0696944940
  H        43.9668328489       15.3784509788       13.3761701080
  H        42.5458662208       18.8124254410       11.2093749509
  H        44.6698017866       18.8494995426        9.8919835302
  H        44.0131963549       17.3164552821       14.8402303831
  H        20.2906218458       17.9313327629       11.4052968276
  H        46.0385144783       15.3792954294        4.0404435321
  H        43.9062926838       15.3067863306        2.7491617484
  H        42.5093319670       18.7749968605        4.8753043852
  H        44.6484574201       18.8338514072        6.1674032979
  H        43.9970772316       17.2911081541        1.2892122633
  H        46.1989722988       26.6826086630        4.6233115168
  H        52.7412671036       21.0627061794        8.1946282298
  H        14.8623249563       19.6771352391        3.9033342942
  H        17.0571691537       19.7529756389        2.7085859703
  H        18.3151756297       16.2156951939        4.8061443807
  H        16.1227168837       16.1640084192        6.0111674090
  H        16.9209415342       17.7264701028        1.2662002442
  H        52.3225824863       21.6737262200        6.2946316194
  H        52.0137230544       21.7027258432        9.4955015879
  H        49.0671587638       18.6077164372        5.2042938984
  H        13.2472734012       19.0162605982        7.9762468555
  H        29.9660876793       12.4783494698       12.2202817037
  H        28.9145569460       10.5393752053       13.4042134684
  H        25.2849386685       11.1593002191       11.1825262312
  H        26.3542150898       13.0834455166        9.9950386917
  H        27.1909881353       11.6579568678       14.7853789066
  H        30.9833745718       22.7662558523       11.9872903122
  H        31.9884103863       24.6357599437       13.3003874338
  H        35.6824560522       24.1410823812       11.1535658043
  H        34.6596007680       22.2753616300        9.8398255971
  H        33.6641015497       23.5727755097       14.7521606032
  H        25.7643938944        8.5811067290       11.3806072550
  H        30.9071234458       22.6843338899        3.8943075851
  H        31.9267254958       24.5642833674        2.6100949066
  H        35.5516292645       24.1399017133        4.8870061213
  H        34.5106711754       22.2722907191        6.1788140582
  H        33.6306366780       23.5604964182        1.2022719705
  H        40.5834892785       17.0565277308        4.6628104948
  H        32.5134629444       14.1469329802        8.2443813425
  H        29.8536585662       12.4430550908        3.9899314233
  H        28.8172235842       10.5640235119        2.7125194908
  H        25.1053179947       11.2160571830        4.7831927458
  H        26.1585139307       13.0927932617        6.0612603450
  H        27.1451121895       11.6754021501        1.2345205059
  H        33.2993847488       14.2294923120        6.4413869774
  H        33.4073151528       14.4005478284        9.5985017644
  H        32.0546868856       18.4775226754        5.0846627530
  H        30.2048397381       14.1377630154        8.0755313938
  H        16.1177551349        2.9628534818       12.1292738558
  H        14.9521686091        4.8197486089       13.3219522840
  H        17.3656391155        7.6856766814       11.2106023772
  H        18.5147611234        5.8183550782       10.0108958866
  H        16.7526508798        5.7391021604       14.7713452206
  H        44.8278464477       32.1401897354       11.9770605599
  H        45.9371150958       30.3413016998       13.3065334072
  H        43.6823504793       27.3780901005       11.1523260655
  H        42.5996429152       29.1900110175        9.8096983501
  H        44.2301195739       29.4366263169       14.7688649512
  H        14.8501369134        8.5456415571       11.3632171259
  H        44.8999193409       32.2339766401        3.9319380274
  H        46.0246920187       30.4128967437        2.6523328753
  H        43.7630794129       27.4840452055        4.8451670515
  H        42.6453938433       29.3178051113        6.1242982469
  H        44.2682645693       29.4704061410        1.2181723142
  H        35.0343844549       26.6248978290        4.6323621117
  H        36.6052276956       35.1338109221        8.1806591990
  H        16.1433919887        3.0127003396        3.9039977669
  H        14.9736916287        4.8560526352        2.6883294150
  H        17.3959622387        7.7470237760        4.7547964249
  H        18.5429452996        5.8931436842        5.9824993015
  H        16.7640891703        5.7551939851        1.2190993289
  H        36.2788382612       34.4819373453        6.2732450950
  H        36.3807910861       34.2090944794        9.4997925804
  H        40.5798112436       33.2023622126        5.1538547452
  H        17.4706058571        1.9471795759        7.9739641952
  H        28.7825783253       18.8990198236       12.2967312621
  H        28.7105885229       18.7882594277        3.7663598198
  H        30.8748740529       15.3099061338        3.7765557391
  H        32.3698803679       16.4777898921       12.2837379923
  H        29.6061496200       19.1182809190       14.6920776750
  H        18.8531903464        0.8688957222       12.3350183109
  H        40.5282846535       35.2289137879        3.9521757281
  H        42.3237804279       34.4190391884        3.5902567814
  H        22.0871065926        0.6922891775       12.3516966433
  H        11.5966598020       18.7126585295       12.3824925920
  H        52.2652489370       18.4311305539        3.6779352440
  H        49.2550595771       16.4766215946        3.5841941705
  H        10.1504259495       15.7982979711       12.2924610917
  H        50.8502326087       17.6928404814        3.9539872602
  H        10.0460225332       17.3947714377       12.0518886978
  H        20.2143783956        0.0019073941       12.0419992399
  H        39.1835982518       36.1242250213        3.6864285097
 Ni        30.2686956626       17.3788218417        2.6701687035
 Ni        31.1149350270       16.0602728470       -1.0847778626
 Ni        29.9270329536       17.3303549910        0.3325116994
 Ni        30.3523624955       17.3732945486       13.2450586994
  O        10.6498609452       14.3652081971        5.4857869090
  O        12.6130663458       14.6574085183        6.5838569529
  O        49.1475875140       16.8459212788        7.9897052267
  O        50.3500885695       20.9362392417        5.6482022110
  O        48.3484665341       20.5932252362        6.6659694318
  O        11.0509235620       17.0540675401        6.5006663604
  O        50.3206909349       20.8817031361       10.4068887495
  O        48.3465904765       20.5866518131        9.3270488956
  O        49.5432441071       18.2484044076       10.0683090760
  O        12.3587566946       18.6247040935        7.9996937575
  O        48.6931586009       14.1486600557        6.7512791327
  O         8.2098031581       14.2104918537        9.3225884641
  O        10.7352223330       14.5068051108       10.6643509341
  O        12.5716826028       14.5827042405        9.3285683846
  O        22.8440595685        2.0421985600        5.4878161301
  O        21.6034114991        3.5911706103        6.5907504924
  O        42.0579902778       34.1370900042        7.9791074450
  O        37.9812800100       33.1353155441        5.5719446167
  O        39.2175060474       31.5749644071        6.6656607688
  O        20.3082843816        1.0395809206        6.5018327174
  O        38.0240055683       33.1843571840       10.4157433140
  O        39.2184084994       31.5829510036        9.3271320598
  O        40.6521179466       33.7690514116       10.0602290129
  O        18.2554875430        1.3762955057        7.9967717126
  O        44.6222167404       35.1005455257        6.7588838701
  O        24.2055032683       -0.0001507877        9.3207568839
  O        22.7529498622        2.0562957368       10.5826938089
  O        21.6239919792        3.5950813214        9.3413056749
  O        27.4604956182       18.6949662233        5.4863237915
  O        26.6900127053       16.9194642252        6.6681248279
  O        30.6280699601       19.3467284515        7.9959934988
  O        33.5399267744       16.3257947828        5.6576192124
  O        34.2673363992       18.1790141079        6.7423141467
  O        29.5320246006       17.0041700131        6.5753249004
  O        33.5544664059       16.3431051170       10.4216003858
  O        34.2982058147       18.2382937354        9.4023461576
  O        31.6484192299       18.3207495217       10.0883438130
  O        30.2899505418       15.1047624324        8.0754594993
  O        28.5519153953       21.0245995618        6.8293854066
  O        28.5101980096       20.9493601462        9.3977013621
  O        27.4525536203       18.6794716544       10.6562773955
  O        26.6891419738       16.9281835304        9.4171734917
  O        13.1465484547       18.6936662818       10.5862774736
  O        13.9176427259       16.9158896709        9.4038733462
  O        50.5957550459       19.3502895799        8.0206512586
  O        47.6819455239       16.3274332894       10.4177119154
  O        46.9499626946       18.1756889452        9.3257030811
  O        11.0688855859       17.0159297466        9.4895638945
  O        47.6744571985       16.3359099066        5.6527879086
  O        46.9247775205       18.2359162383        6.6632099249
  O        49.5687053171       18.3177901695        5.9822981263
  O        10.3186624488       15.1001868688        7.9971275027
  O        52.6707148409       21.0279950844        9.2418086906
  O        12.1468118102       20.8914404519        6.6733485610
  O        13.1048079579       18.6142657552        5.3262824226
  O        13.9552606565       16.9865292420        6.6654863547
  O        29.9978868341       14.4394492982       10.6679426814
  O        28.0726400203       14.6542783817        9.4895685508
  O        32.0703667087       16.8526062932        8.0600747602
  O        30.9563197942       20.9480486671       10.3418702793
  O        32.9540766673       20.5912161565        9.3242485493
  O        29.5591752015       17.0608935819        9.5687132588
  O        30.8511679204       20.8724849646        5.5836551267
  O        32.8517098547       20.5841588991        6.6525699342
  O        31.6101675188       18.2349668042        5.9134901941
  O        28.2564703868       18.6264455718        8.0642345054
  O        32.4921410860       14.2120819400        9.3226659406
  O        32.4039684575       14.2146054283        6.8191948023
  O        29.8683767764       14.3678404487        5.4994327608
  O        27.9679913009       14.5806676293        6.7419423668
  O        17.8891680675        1.9664754339       10.6628561212
  O        18.9560444701        3.5271347337        9.4081263248
  O        39.1684684890       34.1386054498        7.9971577840
  O        43.2801824110       33.0588600875       10.3317220168
  O        42.0343827744       31.5064306410        9.2415931536
  O        20.3171616386        1.0360594631        9.4803604574
  O        43.2761503803       33.1825104875        5.5748997125
  O        42.0052456961       31.5841113046        6.5830065874
  O        40.5790662740       33.7750775353        5.9359600079
  O        22.3670277992        1.3842171051        7.9980633010
  O        36.6727727701       35.0996666811        9.2333090537
  O        16.4456193494        0.0639886622        6.6681960286
  O        17.9363509573        2.0431332926        5.3263989495
  O        18.9186847943        3.5931122607        6.6658790413
  O        29.6537843840       18.6856162322        3.9981279123
  O        29.7001403730       18.7753574339       11.9858984783
  O        31.1710134275       16.1916150111        4.0684832834
  O        31.4306787285       16.3384607919       12.0684628818
  O        29.3632887703       18.1749507033       14.7311010328
  O        39.4567922876       35.2436206079        4.0019981835
  O        19.1409785096        0.0042615212       11.9905745448
  O        41.9693865000       35.1727032689        4.0871802549
  O        21.6911786923       -0.0693901971       11.8960685130
  O        51.3651703858       18.6143990502        4.0052742030
  O        10.7508349884       18.7471756198       11.9050142778
  O        50.0793290536       16.4127425142        4.0917491676
  O         9.5243562491       16.4831097822       11.9912188384
 Zr         9.2970338994       16.0528856901        6.1821946862
 Zr        49.8363986468       16.0069334717        9.7465844738
 Zr        22.0733206341        0.0297484375        6.1893778944
 Zr        42.4608907456       35.1534736263        9.8011761224
 Zr        29.5656777795       19.0318694012        6.2276921946
 Zr        29.5634216605       19.1655545340        9.8327754014
 Zr        11.0376840475       19.0523577829        9.8278196032
 Zr        11.0436991148       19.1551845757        6.2511299032
 Zr        31.3236366114       16.0861072544        9.8482525586
 Zr        31.3453263591       15.9825480322        6.2494775290
 Zr        18.6010093389       -0.0017193481        9.7635623293
 Zr        18.5066156622       -0.0079530559        6.2135203590
 Zr        12.3014366590       16.3232777361        7.9905051999
 Zr        48.6162661827       18.8329459609        8.0101842044
 Zr        20.3144313837        2.4731139284        7.9909650223
 Zr        40.6430368974       32.6869503232        7.9781503761
 Zr        28.3143607542       16.3123739273        8.0832246749
 Zr        32.5982102019       18.8288908336        8.0200615648
  H        30.4801133637       16.3414373701        1.4267013996
