     563
 i =      391, E =     -4694.9933693448
  C        11.8586403912       14.0534043474        5.7415562604
  C        12.4560426878       12.8904344744        5.0232784831
  C        11.7043970990       12.1717359592        4.0814010055
  C        12.2806940208       11.1094747042        3.3890777015
  C        13.6211780794       10.7394091877        3.6169620598
  C        14.3542793926       11.4427336550        4.5906690810
  C        13.7814626134       12.5077453473        5.2821910952
  C        14.2606037104        9.6486782201        2.8435753289
  C        14.2557134915        9.6565005849        1.4218702376
  C        13.7425655617       10.7586137974        0.6679373296
  C        49.1265872136       21.2333871616        5.8797927157
  C        48.5497273604       22.4012491397        5.1527554162
  C        49.2997247457       23.0684998061        4.1716763608
  C        48.7327672546       24.1075559575        3.4384055784
  C        47.4022623924       24.5092628434        3.6670974026
  C        46.6713338819       23.8604559884        4.6806728879
  C        47.2338018434       22.8156098991        5.4100903782
  C        46.7720081352       25.5868903691        2.8697639484
  C        46.7610348252       25.5572423001        1.4480013855
  C        47.2609583475       24.4421357492        0.7045216096
  C        14.8595378572        8.5700968905        0.7085958528
  C        14.8914598652        8.5967517302        3.5202060250
  C        49.1129525695       21.2034207598       10.1453338540
  C        48.5275584367       22.3647592668       10.8724225886
  C        49.2666879314       23.0252811682       11.8655461681
  C        48.6903497222       24.0598030798       12.5970225793
  C        47.3600152497       24.4567381816       12.3586161220
  C        46.6397214936       23.8120437661       11.3348716700
  C        47.2132809244       22.7761678527       10.6030591674
  C        46.7215619337       25.5316842081       13.1496446709
  C        46.7332846725       25.5280276100       14.5713506298
  C        47.2486475621       24.4287949585       15.3277575463
  C        40.6169732406       17.0781626930       15.3182637814
  C        40.6343482557       17.1190586631       12.5079931732
  C        11.8828121278       14.0863621835       10.2854991469
  C        12.4718849309       12.9104102571       10.9896111720
  C        11.7143171815       12.1775076773       11.9159334774
  C        12.2807108416       11.0949539539       12.5843397809
  C        13.6193850687       10.7207921930       12.3523204043
  C        14.3573473094       11.4359778673       11.3912114559
  C        13.7921197730       12.5172459112       10.7185101372
  C        14.2528808004        9.6240078275       13.1227606956
  C        14.2516045673        9.6439947568       14.5446050129
  C        13.7419104627       10.7530224906       15.2916815255
  C        22.5102102886        3.2429091063        5.7506651489
  C        23.2229984715        4.3442047254        5.0444443449
  C        24.2176954267        4.0567638142        4.0980416745
  C        24.8469265619        5.0910292894        3.4106583752
  C        24.4967043573        6.4346795049        3.6493607987
  C        23.5284999071        6.7135931703        4.6312551871
  C        22.8949396417        5.6811127266        5.3176343823
  C        25.1099708911        7.5364232529        2.8738769839
  C        25.0945049164        7.5274217995        1.4523897763
  C        24.3932226893        6.5304126875        0.7027841537
  C        38.2999479460       31.9277981438        5.8504071888
  C        37.5634923978       30.8382555441        5.1454713398
  C        36.6003632412       31.1433773857        4.1712452750
  C        35.9755744070       30.1243156761        3.4572694636
  C        36.2984284807       28.7737237255        3.6946477406
  C        37.2310761488       28.4760403666        4.7062757037
  C        37.8599583178       29.4939959485        5.4193823650
  C        35.6919505416       27.6834814792        2.8960730850
  C        35.7302614078       27.6973958911        1.4742978561
  C        36.4403752347       28.6985816963        0.7392835437
  C        25.7266867821        8.5947427177        0.7362935455
  C        25.7024224915        8.6115846293        3.5476746325
  C        38.3293834331       31.9607381372       10.1585044536
  C        37.6106504837       30.8867027361       10.9040157265
  C        36.6811575255       31.1944144646       11.9094899042
  C        36.0718885750       30.1757980441       12.6402000689
  C        36.3770353453       28.8226891857       12.3898316049
  C        37.2856156767       28.5250196434       11.3554295335
  C        37.8969152767       29.5401400285       10.6259602286
  C        35.7664351451       27.7229529393       13.1728720413
  C        35.7684881479       27.7174914594       14.5955109833
  C        36.4577086343       28.7088527136       15.3624723611
  C        46.1352895362       26.6206800733       15.2814721606
  C        46.0876648940       26.5800708085       12.4735825987
  C        22.4645086874        3.2548577670       10.2543991829
  C        23.1685631449        4.3606891848       10.9706057804
  C        24.1778377311        4.0689013876       11.9019772507
  C        24.8156800201        5.0954195144       12.5937074943
  C        24.4638982895        6.4425365447       12.3768074851
  C        23.4784964768        6.7277666889       11.4129905967
  C        22.8362871372        5.7014431079       10.7210820546
  C        25.1005004348        7.5357106677       13.1524718678
  C        25.0893739014        7.5272109535       14.5747197791
  C        24.3885985243        6.5317805192       15.3261949669
  C        26.5607222458       17.8261682400        5.7878933198
  C        25.2611313391       17.8884077576        5.0594274845
  C        25.0040033542       18.9068327462        4.1286761793
  C        23.7965254900       18.9359968813        3.4351380119
  C        22.8133912203       17.9506515534        3.6535745998
  C        23.0654430596       16.9551544203        4.6157335427
  C        24.2745269068       16.9206494041        5.3067296489
  C        21.5472775762       17.9451658277        2.8823337948
  C        21.5559522585       17.9408013898        1.4605651082
  C        22.7664890621       17.8334498653        0.7054757373
  C        34.4164103209       17.2144554639        5.9141720072
  C        35.7116668781       17.1451785985        5.1751357095
  C        35.9094730166       16.1699021816        4.1851826381
  C        37.0925211892       16.1414573220        3.4512369904
  C        38.1094890759       17.0881448995        3.6843023391
  C        37.9139462386       18.0431179740        4.7006670253
  C        36.7296038613       18.0757019175        5.4337226643
  C        39.3639912097       17.0883200678        2.8957024509
  C        39.3594218687       17.0934943845        1.4731015041
  C        38.1517270605       17.2041347248        0.7142517373
  C        20.3121535287       17.9586825445        0.7484172833
  C        20.3217963031       17.9358753100        3.5609702879
  C        34.4443646543       17.2423404712       10.1820211420
  C        35.7459608721       17.1433140212       10.9060074154
  C        35.9696825104       16.1388432843       11.8600305798
  C        37.1573950612       16.1106491382       12.5872883067
  C        38.1542533834       17.0834597675       12.3775767330
  C        37.9394300895       18.0605557556       11.3875488591
  C        36.7496036190       18.0951356052       10.6657184819
  C        39.4031290682       17.0955489749       13.1731863402
  C        39.3794963252       17.0965973168       14.5946556992
  C        38.1612014232       17.2026396225       15.3372313401
  C        35.1338842236       26.6390970189       15.2976040619
  C        35.1797252997       26.6509266676       12.4878028568
  C        26.5645971623       17.8270135901       10.3264707171
  C        25.2503515777       17.8831637335       11.0270778942
  C        24.9734234042       18.9153017961       11.9359577843
  C        23.7556955042       18.9464474754       12.6089519340
  C        22.7867829414       17.9473221003       12.3926097938
  C        23.0563179962       16.9402380367       11.4487145471
  C        24.2754308090       16.9056578877       10.7756294189
  C        21.5224251603       17.9360825500       13.1632515407
  C        21.5426139838       17.9350584703       14.5841861102
  C        22.7601921768       17.8308944824       15.3289916769
  C        14.0451021969       17.8319155360       10.2840912414
  C        15.3510976872       17.8967087496       11.0016559400
  C        15.6085516429       18.9098665856       11.9378847691
  C        16.8188280753       18.9371795297       12.6268027974
  C        17.8027483686       17.9541435937       12.4001342783
  C        17.5510691113       16.9662831007       11.4299763573
  C        16.3402439002       16.9345693322       10.7423750080
  C        19.0688011073       17.9410427470       13.1704005150
  C        19.0613779528       17.9402658748       14.5919561425
  C        17.8508091946       17.8383962396       15.3471898083
  C        46.8027682870       17.2180250717       10.1592611221
  C        45.5112215045       17.1522687437       10.9045907951
  C        45.3064147006       16.1711094071       11.8873377719
  C        44.1237154361       16.1463202473       12.6222179146
  C        43.1138878960       17.1027228543       12.3978074024
  C        43.3162558410       18.0639757707       11.3886898117
  C        44.4997632568       18.0924804879       10.6543972035
  C        41.8592322509       17.1054558975       13.1864219993
  C        41.8638880206       17.0991097978       14.6089950768
  C        43.0721127817       17.1966292523       15.3686615411
  C        20.3050872879       17.9548231363       15.3043161407
  C        20.2940743828       17.9191673735       12.4918329099
  C        46.7826350935       17.2307215994        5.8882478752
  C        45.4780616330       17.1211731854        5.1729817043
  C        45.2598143592       16.1187176711        4.2154076237
  C        44.0705668728       16.0855211464        3.4907518660
  C        43.0681041308       17.0515717063        3.7055906237
  C        43.2770103116       18.0242617664        4.7014137811
  C        44.4675410987       18.0638082125        5.4212383518
  C        41.8200981667       17.0665929132        2.9088662045
  C        41.8439473749       17.0775006155        1.4873884345
  C        43.0625705494       17.1835820550        0.7455175293
  C        46.1530488877       26.6371240542        0.7262304526
  C        46.1620951243       26.6560462363        3.5358663230
  C        14.0401877990       17.8287631462        5.7064237667
  C        15.3542821556       17.8990443973        5.0065498432
  C        15.6231242720       18.9212099423        4.0843842270
  C        16.8471710253       18.9597629441        3.4218116122
  C        17.8271263244       17.9751426681        3.6570415622
  C        17.5638880816       16.9789424190        4.6143146182
  C        16.3419851513       16.9401052317        5.2808305140
  C        19.0931908442       17.9588677032        2.8893277610
  C        19.0743031223       17.9488365709        1.4683328820
  C        17.8571082805       17.8423500704        0.7233919946
  C        28.8092756500       14.0807633732       10.3630267017
  C        28.2139286535       12.9008704880       11.0509199830
  C        28.9460465228       12.1737155913       12.0008527308
  C        28.3576678344       11.0966873195       12.6593221911
  C        27.0244301879       10.7248204842       12.3920314246
  C        26.3153387654       11.4326806027       11.4048686431
  C        26.9007905422       12.5093085387       10.7448061142
  C        26.3605886315        9.6436451397       13.1555171585
  C        26.3458087702        9.6677584163       14.5765760386
  C        26.8523983190       10.7774232055       15.3250611433
  C        32.1788115780       21.2316857558       10.1429680547
  C        32.7740062388       22.3977033190       10.8628994906
  C        32.0249561559       23.0808306835       11.8337822146
  C        32.5966436811       24.1193626087       12.5630898012
  C        33.9333222481       24.5052604189       12.3427451155
  C        34.6644164433       23.8418374832       11.3389966092
  C        34.0954576274       22.7973906701       10.6119445914
  C        34.5615066954       25.5811618040       13.1450128662
  C        34.5467327793       25.5542063923       14.5670689009
  C        34.0360837742       24.4392812865       15.3040433356
  C        25.7288912628        8.5911676877       15.2918462187
  C        25.7215164683        8.5958629225       12.4795344896
  C        32.0704856914       21.1901063194        5.8441698692
  C        32.6513812231       22.3574446752        5.1140730432
  C        31.9249286190       23.0117925875        4.1071420716
  C        32.5037526186       24.0533957675        3.3848091255
  C        33.8243025559       24.4694800836        3.6472077410
  C        34.5310337244       23.8306181958        4.6842704182
  C        33.9564425294       22.7864466661        5.4041996363
  C        34.4703478887       25.5517151765        2.8675784636
  C        34.4992558615       25.5396737979        1.4451716235
  C        34.0123756326       24.4327333846        0.6808034816
  C        40.6062892470       17.0716083576        0.7637089729
  C        40.5888242388       17.0904068558        3.5739634595
  C        28.7039645957       14.0585413066        5.8187280433
  C        28.1080704074       12.9085063574        5.0778170909
  C        28.8636092171       12.1959940369        4.1340034337
  C        28.2931465558       11.1380207090        3.4310082186
  C        26.9527494449       10.7636865735        3.6506488046
  C        26.2137235975       11.4614635541        4.6239280214
  C        26.7817017600       12.5219008180        5.3263992785
  C        26.3226432995        9.6705706274        2.8734215571
  C        26.3292769725        9.6807368771        1.4520237475
  C        26.8428599831       10.7844405554        0.7010743131
  C        18.1353983220        3.1809228587       10.3171164262
  C        17.4058598119        4.2780703179       11.0156777558
  C        16.3899944774        3.9995035223       11.9429743184
  C        15.7420430764        5.0393439264       12.6064700623
  C        16.0938978015        6.3831123162       12.3670084650
  C        17.0834755666        6.6528557953       11.4035097806
  C        17.7327974670        5.6156451339       10.7384499039
  C        15.4693621683        7.4906926514       13.1300697867
  C        15.4846049050        7.4900007273       14.5517887253
  C        16.1861895959        6.4964059440       15.3049532623
  C        42.9458224800       31.8595369617       10.0728265300
  C        43.6461925322       30.7718064486       10.8167714025
  C        44.5917347983       31.0931160518       11.8028261568
  C        45.1974307381       30.0875548028       12.5504818472
  C        44.8709354318       28.7345089506       12.3356419173
  C        43.9451263885       28.4201766469       11.3224142310
  C        43.3363277973       29.4253393407       10.5743802437
  C        45.4884697067       27.6551988576       13.1388500379
  C        45.4926174627       27.6808254298       14.5605421449
  C        44.8055921313       28.6889333834       15.3071413215
  C        14.8556379268        8.5624966924       15.2641579310
  C        14.8740687836        8.5624449621       12.4514846740
  C        42.9464099468       31.9616097473        5.8089709763
  C        43.6915774029       30.8854297533        5.0954454698
  C        44.6562706964       31.1913388089        4.1232547104
  C        45.2777443609       30.1717485844        3.4054840966
  C        44.9538166016       28.8214566030        3.6430270206
  C        44.0202089546       28.5237781038        4.6536815857
  C        43.3920102531       29.5405554036        5.3659025829
  C        45.5628117842       27.7240296787        2.8577883953
  C        45.5331265866       27.7173207763        1.4364968665
  C        44.8268373805       28.7075667450        0.6835352904
  C        35.1120107680       26.6303691066        0.7431571331
  C        35.0791700259       26.6104406136        3.5536366262
  C        18.1486082212        3.2469056477        5.7066128265
  C        17.4299343968        4.3436989741        4.9972958925
  C        16.4145666277        4.0523272112        4.0739365855
  C        15.7661418520        5.0828869645        3.3985463754
  C        16.1208489406        6.4281407841        3.6210711950
  C        17.1124208327        6.7116292821        4.5780953233
  C        17.7602070798        5.6827846767        5.2578750497
  C        15.4902140235        7.5237774645        2.8486218143
  C        15.4958537250        7.5070429009        1.4274798278
  C        16.1925493837        6.5053107368        0.6807671153
  H        10.6723463180       12.4660602669        3.9042525367
  H        11.6944187130       10.5511649259        2.6623987557
  H        15.3912348732       11.1679398885        4.7725506932
  H        14.3508924360       13.0707013644        6.0178725604
  H        13.3757385574       11.6308365207        1.2012094560
  H        50.3224224582       22.7484496797        3.9869141276
  H        49.3192085761       24.6227904807        2.6807779913
  H        45.6418767824       24.1613047892        4.8639030591
  H        46.6628127640       22.2904373226        6.1722460038
  H        47.6294553295       23.5757470195        1.2462173671
  H        14.8720003374        8.5880702250        4.6085199051
  H        50.2866652381       22.7023044595       12.0605833983
  H        49.2686695813       24.5751338473       13.3606617811
  H        45.6104035345       24.1094668599       11.1456340521
  H        46.6525503067       22.2541784181        9.8313140250
  H        47.6073961129       23.5516449552       14.7968932799
  H        40.6401814414       17.0946328064       11.4199012433
  H        48.6870526594       14.0951036675        7.7999870405
  H        10.6809537729       12.4668735569       12.0934860543
  H        11.6888918168       10.5247902687       13.2971966824
  H        15.3926750736       11.1577967627       11.2051142585
  H        14.3645148549       13.0863246731        9.9897874982
  H        13.3751583030       11.6216762949       14.7530587817
  H        47.9300929786       14.2183905612        9.7108471254
  H        47.7799707692       14.3739425590        6.4953113930
  H        49.0827465500       18.5522215169       10.8671839798
  H        10.4158753328       14.1343186458        7.9987692370
  H        24.4758488004        3.0165403905        3.9126791361
  H        25.6196402296        4.8683330831        2.6780567228
  H        23.2506385909        7.7482837770        4.8210058597
  H        22.1260791098        5.8867505625        6.0584066586
  H        23.8266964643        5.7754692359        1.2401342475
  H        36.3662386691       32.1870719761        3.9751642104
  H        35.2294317110       30.3659036454        2.7034469025
  H        37.4884594713       27.4363600934        4.8979105109
  H        38.6055821800       29.2705202189        6.1788005547
  H        37.0027259047       29.4489295416        1.2873675918
  H        25.7260208099        8.5979806841        4.6358241385
  H        36.4560880079       32.2384106805       12.1156360725
  H        35.3451663504       30.4215157260       13.4113970141
  H        37.5345606205       27.4850815483       11.1545892174
  H        38.6198813002       29.3137825998        9.8460215930
  H        37.0344451928       29.4666672047       14.8399656216
  H        46.1091019303       26.5874903221       11.3855480996
  H        44.6682426289       35.1161597673        7.8141089727
  H        24.4522228731        3.0292221068       12.0653679232
  H        25.6010215479        4.8630494124       13.3098212933
  H        23.1961703837        7.7637745018       11.2370088982
  H        22.0593775385        5.9181316266        9.9915075929
  H        23.8181179120        5.7782297243       14.7910699092
  H        44.9535684430       34.3899750632        9.6948535737
  H        44.9018175074       34.2067474455        6.4907999606
  H        40.6658568154       33.2089411164       10.8531390788
  H        23.1504783794        1.9577601553        8.0040945798
  H        25.7585047275       19.6730120612        3.9661108168
  H        23.5986249191       19.7301242413        2.7184322410
  H        22.3151103111       16.1866853035        4.7899333056
  H        24.4841626179       16.1397926614        6.0339912065
  H        23.7064315564       17.7196458644        1.2378726550
  H        35.1175857227       15.4482842410        3.9980875294
  H        37.2436106659       15.3768381773        2.6923726010
  H        38.6897735357       18.7831590998        4.8859143886
  H        36.5638951924       18.8284824755        6.2010023672
  H        37.2109691542       17.3227992287        1.2443005098
  H        20.3248161923       17.9626201490        4.6491759556
  H        35.1993423993       15.3895118964       12.0275848052
  H        37.3266572842       15.3294001783       13.3251713692
  H        38.7023875474       18.8177345662       11.2188031392
  H        36.5638173119       18.8676894436        9.9234100729
  H        37.2274830057       17.3183555174       14.7942947422
  H        35.1572480770       26.6763499625       11.3999427383
  H        28.5056656902       21.0734099835        7.8860951737
  H        25.7235491672       19.6860708192       12.0965983481
  H        23.5397332502       19.7481770168       13.3118340775
  H        22.3144239389       16.1628836774       11.2779608423
  H        24.5022325456       16.1164320612       10.0628563926
  H        23.6952339250       17.7158618241       14.7884244318
  H        29.0168325552       21.7077989641        9.7397999997
  H        29.2049838686       21.6946019365        6.5565063596
  H        32.1034211538       18.5817686465       10.9164737447
  H        27.3726007195       19.0257239107        8.0828162063
  H        14.8494023131       19.6694248137       12.1103802118
  H        17.0172128575       19.7269751312       13.3481589900
  H        18.3026181887       16.2008613901       11.2477666673
  H        16.1311285925       16.1593065962       10.0091558439
  H        16.9108713081       17.7234574859       14.8153315282
  H        46.0913180495       15.4405845450       12.0686778292
  H        43.9674737769       15.3768701417       13.3751335760
  H        42.5461696592       18.8115466400       11.2098027566
  H        44.6701576996       18.8493840861        9.8922699559
  H        44.0136541851       17.3146471205       14.8399481026
  H        20.2917847174       17.9419182941       11.4035485587
  H        46.0380330946       15.3793870017        4.0401056001
  H        43.9058532457       15.3069634041        2.7490193542
  H        42.5092219911       18.7754118848        4.8749220979
  H        44.6482211127       18.8341618016        6.1669619520
  H        43.9969880828       17.2903974603        1.2888840583
  H        46.1989232563       26.6826335827        4.6233124097
  H        52.7412299500       21.0626488456        8.1946423952
  H        14.8635829095       19.6790056180        3.9056335692
  H        17.0581544381       19.7555610838        2.7107293631
  H        18.3134717991       16.2125416575        4.8002916044
  H        16.1214233821       16.1604129618        6.0058264937
  H        16.9219364290       17.7304506847        1.2638632495
  H        52.3223148998       21.6736026568        6.2947139360
  H        52.0134974725       21.7025610445        9.4954208996
  H        49.0670611607       18.6076183592        5.2043013386
  H        13.2471934260       19.0163373270        7.9760406743
  H        29.9706738272       12.4726362669       12.2112571946
  H        28.9256550195       10.5314863464       13.3950742624
  H        25.2852045198       11.1549244258       11.1916199017
  H        26.3501819837       13.0781412782        9.9996836627
  H        27.2221594284       11.6456439851       14.7876429193
  H        30.9974046776       22.7726310415       12.0112124349
  H        32.0100036771       24.6471089004       13.3119126643
  H        35.6986473980       24.1297294543       11.1615028174
  H        34.6666698531       22.2612482373        9.8574991307
  H        33.6874808842       23.5680478406       14.7568379912
  H        25.7522303329        8.5789239779       11.3915202377
  H        30.9104951661       22.6816225711        3.8951870806
  H        31.9326069111       24.5606664426        2.6103096906
  H        35.5528405930       24.1394914286        4.8949501225
  H        34.5100141185       22.2718882105        6.1860038900
  H        33.6458893454       23.5559685434        1.2071625259
  H        40.5825539099       17.0585493725        4.6618529665
  H        32.5091598561       14.1504163413        8.2460577601
  H        29.9006190894       12.4800735392        3.9711571549
  H        28.8851275101       10.5825964643        2.7067981889
  H        25.1764174918       11.1835803860        4.7990274075
  H        26.2084279841       13.0775246546        6.0645959927
  H        27.2040831586       11.6581180222        1.2359170391
  H        33.3005366299       14.2277584578        6.4454837472
  H        33.4084985863       14.4017584145        9.5947473934
  H        32.0675857998       18.4887917871        5.0989510481
  H        30.2058567783       14.1426232178        8.0760436670
  H        16.1180162302        2.9629437802       12.1291852756
  H        14.9524759616        4.8198064118       13.3219522469
  H        17.3659414592        7.6857734331       11.2106486388
  H        18.5150125092        5.8184734102       10.0108307425
  H        16.7527584925        5.7390847939       14.7714399001
  H        44.8280266227       32.1402017022       11.9769877363
  H        45.9373122174       30.3412992612       13.3064136360
  H        43.6824178120       27.3781088097       11.1523039108
  H        42.5997297697       29.1900390445        9.8096872826
  H        44.2303069635       29.4367325150       14.7688044443
  H        14.8504235363        8.5457026625       11.3632599835
  H        44.8999155399       32.2340168454        3.9319084282
  H        46.0247273054       30.4129487417        2.6523128607
  H        43.7631144947       27.4840602058        4.8451353596
  H        42.6454226132       29.3178069040        6.1242761912
  H        44.2684112045       29.4705197338        1.2181132467
  H        35.0301638989       26.6244646849        4.6408502950
  H        36.6052838831       35.1339761687        8.1806404308
  H        16.1434714718        3.0127270356        3.9043717980
  H        14.9736951585        4.8559747818        2.6886247768
  H        17.3960414381        7.7470982371        4.7548044951
  H        18.5432550629        5.8933114209        5.9824402007
  H        16.7640716420        5.7551300870        1.2191923293
  H        36.2791570813       34.4819192898        6.2733383233
  H        36.3812648420       34.2089300008        9.4995886726
  H        40.5795332056       33.2023852183        5.1539516715
  H        17.4710468480        1.9475601599        7.9740616342
  H        28.7885249616       18.8884276376       12.3640384551
  H        28.6820721204       18.8790541102        3.7612422079
  H        30.8457140742       15.3892502687        3.7575366488
  H        32.3448117029       16.2430546350       12.3783872282
  H        29.3430230804       19.2211323812       14.8087747901
  H        18.8532185890        0.8688536861       12.3351464095
  H        40.5282842304       35.2288242680        3.9520583806
  H        42.3234439703       34.4182650442        3.5904931862
  H        22.0873006042        0.6922189339       12.3516422023
  H        11.5966076103       18.7126424818       12.3825113486
  H        52.2648773965       18.4312568626        3.6776437444
  H        49.2550797602       16.4765650853        3.5842024816
  H        10.1503395835       15.7982830453       12.2925393640
  H        50.8499491964       17.6927534996        3.9540477693
  H        10.0459424066       17.3947331621       12.0518976916
  H        20.2144727856        0.0020392728       12.0420077055
  H        39.1837952823       36.1244273865        3.6864033750
 Ni        30.2686325627       17.4781117325        2.6734869873
 Ni        31.1186162297       15.9590132523       -0.7535566378
 Ni        29.8405572900       17.3809862075        0.4141848301
 Ni        30.3955688428       17.3927699299       13.4066473388
  O        10.6498893732       14.3652129179        5.4858037861
  O        12.6130822963       14.6574285359        6.5838763267
  O        49.1475921600       16.8459309696        7.9896770197
  O        50.3500784060       20.9362911498        5.6482347066
  O        48.3484322536       20.5932492813        6.6659579603
  O        11.0509249643       17.0540564626        6.5006285920
  O        50.3207369178       20.8817053796       10.4068757838
  O        48.3466388771       20.5866513207        9.3270384822
  O        49.5432565308       18.2484162118       10.0682914728
  O        12.3587522167       18.6246634928        7.9996771847
  O        48.6931730494       14.1486590697        6.7512608310
  O         8.2098161783       14.2104799026        9.3225533224
  O        10.7352526164       14.5067949088       10.6643379523
  O        12.5717096102       14.5827248606        9.3285526238
  O        22.8441039267        2.0414485443        5.4874560654
  O        21.6059216902        3.5923882907        6.5889204821
  O        42.0580598220       34.1372905959        7.9790723669
  O        37.9812417485       33.1362125295        5.5722941753
  O        39.2177773358       31.5754824211        6.6660169978
  O        20.3084189691        1.0398374929        6.5020262515
  O        38.0241682734       33.1846520863       10.4156895923
  O        39.2186833822       31.5832175305        9.3270001213
  O        40.6521327803       33.7691767338       10.0602070424
  O        18.2557917150        1.3764743529        7.9967436201
  O        44.6222484802       35.1004973831        6.7588474893
  O        24.2054423663       -0.0000795128        9.3207703411
  O        22.7530681503        2.0566383348       10.5831378831
  O        21.6247077489        3.5960596324        9.3428754599
  O        27.4589869131       18.6954099318        5.4895156156
  O        26.6903373451       16.9182773547        6.6696137493
  O        30.6265398407       19.3493671140        8.0081872073
  O        33.5392009559       16.3271076038        5.6566813244
  O        34.2668632209       18.1793307461        6.7426062085
  O        29.5315141267       17.0095252133        6.5768492638
  O        33.5579569755       16.3409214394       10.4176694565
  O        34.2975875047       18.2399018240        9.4035762757
  O        31.6483120863       18.3205243453       10.0996699311
  O        30.2906971625       15.1095459467        8.0778621377
  O        28.5514240418       21.0254585113        6.8323812805
  O        28.5154686459       20.9465826531        9.4014458744
  O        27.4562680989       18.6797076377       10.6593489505
  O        26.6895013897       16.9292126123        9.4191445339
  O        13.1464750120       18.6937791641       10.5861950896
  O        13.9178989589       16.9159813601        9.4040283206
  O        50.5957279767       19.3502448381        8.0205939425
  O        47.6822239015       16.3273428602       10.4176072628
  O        46.9500850739       18.1756588563        9.3256466862
  O        11.0689107156       17.0158914553        9.4895679753
  O        47.6743647165       16.3359292488        5.6527333967
  O        46.9247480725       18.2359084111        6.6631427084
  O        49.5686533877       18.3177751262        5.9822994767
  O        10.3186490829       15.1001784126        7.9971177785
  O        52.6707326494       21.0280325616        9.2418158491
  O        12.1468293650       20.8914178478        6.6732974700
  O        13.1049555907       18.6142361964        5.3262072169
  O        13.9554648450       16.9865390079        6.6653330209
  O        29.9959554700       14.4368513303       10.6670469763
  O        28.0708086936       14.6543472035        9.4894062661
  O        32.0701830718       16.8550614132        8.0670177690
  O        30.9630108334       20.9403791266       10.4104692738
  O        32.9430665571       20.5970728855        9.3317013174
  O        29.5617477268       17.0646742437        9.5740261923
  O        30.8513870300       20.8732702987        5.5866635272
  O        32.8524326080       20.5831432621        6.6553186319
  O        31.6081114473       18.2397300214        5.9170452993
  O        28.2579782718       18.6268331093        8.0705913041
  O        32.4916858119       14.2133539096        9.3242207582
  O        32.4035706548       14.2161256535        6.8194048678
  O        29.8883136674       14.4249743657        5.4975237654
  O        27.9774291325       14.5823196621        6.7380954461
  O        17.8892362666        1.9665641461       10.6628007140
  O        18.9562481607        3.5271529146        9.4080149125
  O        39.1684808174       34.1386885571        7.9971628355
  O        43.2802072388       33.0588933809       10.3317305691
  O        42.0344439469       31.5064226917        9.2416025670
  O        20.3174541494        1.0365354043        9.4800499394
  O        43.2761082589       33.1825210732        5.5748812779
  O        42.0052430013       31.5841428244        6.5830048961
  O        40.5790729208       33.7751766918        5.9359995557
  O        22.3672664098        1.3846405130        7.9979851610
  O        36.6728188093       35.0997040849        9.2333143063
  O        16.4456688360        0.0641508456        6.6682561262
  O        17.9364379021        2.0432575267        5.3264602511
  O        18.9190866416        3.5931530711        6.6658743062
  O        29.6210196396       18.7561458782        3.9980754677
  O        29.7065500621       18.7581093856       12.0599393755
  O        31.1344481201       16.2667820367        4.0674206305
  O        31.4272427495       16.3447935746       12.0735552789
  O        29.3139838082       18.2489618245       14.8352797077
  O        39.4568180180       35.2437880919        4.0020169557
  O        19.1410791952        0.0043141812       11.9905347573
  O        41.9692652956       35.1722758974        4.0870421891
  O        21.6911772480       -0.0693646324       11.8960149643
  O        51.3648914408       18.6144119430        4.0052707480
  O        10.7508203355       18.7471975423       11.9050068043
  O        50.0793766810       16.4127690651        4.0917346832
  O         9.5243157943       16.4831038064       11.9912481475
 Zr         9.2967925951       16.0528976876        6.1821815915
 Zr        49.8362229963       16.0069123387        9.7466123833
 Zr        22.0733167563        0.0298882692        6.1890733293
 Zr        42.4608807887       35.1536691473        9.8010952045
 Zr        29.5629187177       19.0368256615        6.2431563539
 Zr        29.5682018872       19.1596065540        9.8604959082
 Zr        11.0374909641       19.0523060242        9.8277635397
 Zr        11.0435082942       19.1551467029        6.2511601749
 Zr        31.3279517677       16.0873977739        9.8752037675
 Zr        31.3518065185       15.9955388937        6.2598660281
 Zr        18.6011957271       -0.0014353317        9.7633847916
 Zr        18.5067506894       -0.0075818570        6.2136161067
 Zr        12.3012413449       16.3232750832        7.9904966310
 Zr        48.6159822619       18.8328963841        8.0101565092
 Zr        20.3155019374        2.4738441750        7.9906304867
 Zr        40.6432625811       32.6871188766        7.9781754784
 Zr        28.3194476276       16.3138474617        8.0864453043
 Zr        32.5985811931       18.8286120947        8.0307457262
  H        30.3766778281       16.3665646514        1.5171491271
