     560
 i =       16, E =     -4340.3668719532
  C        11.8587510444       14.0534039954        5.7412787463
  C        12.4559551727       12.8903274372        5.0234270705
  C        11.7043181780       12.1716988507        4.0814475392
  C        12.2806224197       11.1093440095        3.3893416181
  C        13.6212415815       10.7394252135        3.6168387099
  C        14.3541985826       11.4428048657        4.5906408579
  C        13.7815406185       12.5079217455        5.2820881826
  C        14.2605251255        9.6486092153        2.8435096873
  C        14.2554360884        9.6564781281        1.4218367238
  C        13.7421244368       10.7585398538        0.6679208928
  C        49.1267739483       21.2335848265        5.8796134918
  C        48.5499033067       22.4010527796        5.1525316866
  C        49.2999926764       23.0683499532        4.1714980512
  C        48.7328408933       24.1072562847        3.4382171197
  C        47.4024826109       24.5094722618        3.6671649445
  C        46.6717886517       23.8607269895        4.6810167967
  C        47.2342615395       22.8160360358        5.4105816295
  C        46.7721489661       25.5869414270        2.8697716656
  C        46.7613536221       25.5571681750        1.4480391818
  C        47.2612679824       24.4420597113        0.7045682196
  C        14.8593990058        8.5701639047        0.7085701667
  C        14.8914780480        8.5967445799        3.5201350324
  C        49.1130231144       21.2037085937       10.1452348666
  C        48.5276880186       22.3646533753       10.8724615971
  C        49.2667815047       23.0251011628       11.8657341363
  C        48.6903772346       24.0594918538       12.5972739688
  C        47.3601617883       24.4568670700       12.3586195823
  C        46.6400928549       23.8124649872       11.3344704014
  C        47.2136932039       22.7767381316       10.6025232733
  C        46.7216744246       25.5317287583       13.1496518004
  C        46.7335334699       25.5279011568       14.5713348690
  C        47.2490208817       24.4287753983       15.3278017024
  C        40.6153416601       17.1037549410       15.3110612561
  C        40.6320018237       17.1660306372       12.4998402247
  C        11.8829481812       14.0863399271       10.2856850861
  C        12.4717295714       12.9103036470       10.9894363426
  C        11.7142569178       12.1776036496       11.9160233156
  C        12.2805992129       11.0949589368       12.5842604529
  C        13.6192647182       10.7206509885       12.3522814821
  C        14.3571083604       11.4358046054       11.3910274395
  C        13.7920151091       12.5171563549       10.7184115506
  C        14.2526141746        9.6238847085       13.1227843030
  C        14.2512511974        9.6439736430       14.5445950136
  C        13.7413615291       10.7529271557       15.2916742990
  C        22.5064172151        3.2430506203        5.7489684172
  C        23.2097556944        4.3469171243        5.0362924784
  C        24.2070514905        4.0644402848        4.0914782318
  C        24.8279308411        5.1022748007        3.4016645557
  C        24.4661652971        6.4434903289        3.6361620613
  C        23.4933715163        6.7170902147        4.6147682063
  C        22.8684004440        5.6815308319        5.3040570666
  C        25.0744934833        7.5484825399        2.8619374175
  C        25.0683030986        7.5385432269        1.4407435767
  C        24.3757580538        6.5373483969        0.6890621250
  C        38.3014789993       31.9289943636        5.8474575454
  C        37.5707244836       30.8406351923        5.1445221427
  C        36.6126502303       31.1400735653        4.1609588116
  C        35.9989005569       30.1195071594        3.4437239128
  C        36.3123213371       28.7654030447        3.6970179517
  C        37.2364904977       28.4750121979        4.7237458783
  C        37.8675799918       29.4964292075        5.4251910411
  C        35.7164201202       27.6750371765        2.9126630836
  C        35.7020641475       27.7146627616        1.4603736614
  C        36.4119911459       28.6881377833        0.7392038263
  C        25.7015096486        8.6072446550        0.7279034616
  C        25.6567468169        8.6273065647        3.5383707280
  C        38.3264137959       31.9603930169       10.1577641637
  C        37.6005057057       30.8901872148       10.8922742972
  C        36.6749910699       31.1962154529       11.9052693494
  C        36.0652354479       30.1791043976       12.6333729001
  C        36.3465585768       28.8198901283       12.3636207053
  C        37.2461101785       28.5264247552       11.3144965982
  C        37.8725871770       29.5414258840       10.6020565347
  C        35.7440040221       27.7241845474       13.1361686033
  C        35.7157881235       27.7393295724       14.5896656261
  C        36.4185304567       28.7003360106       15.3336545768
  C        46.1354339098       26.6204894276       15.2814675289
  C        46.0878840641       26.5802385282       12.4736504843
  C        22.4653407762        3.2543294593       10.2523142651
  C        23.1726312048        4.3610852066       10.9649458400
  C        24.1832526486        4.0704786402       11.8950453038
  C        24.8220797661        5.0980365841       12.5844863155
  C        24.4697607656        6.4445949858       12.3657547864
  C        23.4834240930        6.7287378387       11.4027682962
  C        22.8404531384        5.7013200831       10.7132085654
  C        25.1028831139        7.5387628969       13.1428397431
  C        25.0832651670        7.5330379646       14.5648940020
  C        24.3804539220        6.5363609482       15.3127235374
  C        26.5617923668       17.8256699474        5.7925046399
  C        25.2646437185       17.8897715988        5.0614995688
  C        25.0092675016       18.9101813463        4.1316239354
  C        23.8018742755       18.9420869939        3.4380828863
  C        22.8184702458       17.9555740659        3.6507215781
  C        23.0636004915       16.9672941405        4.6225363061
  C        24.2718894802       16.9296848009        5.3150177346
  C        21.5496171241       17.9543829563        2.8836141308
  C        21.5585009094       17.9495694326        1.4614593186
  C        22.7689068978       17.8454648272        0.7055611866
  C        34.4379432085       17.1786883040        5.9222365084
  C        35.7333409308       17.1268054785        5.1899846032
  C        35.9207739869       16.1689778129        4.1802092411
  C        37.0988859982       16.1473138732        3.4394908619
  C        38.1190095854       17.0881434979        3.6827975514
  C        37.9368976601       18.0234329011        4.7200922161
  C        36.7558615099       18.0496602663        5.4572914125
  C        39.3689287492       17.0931401135        2.8896582088
  C        39.3608882908       17.1081950481        1.4670443867
  C        38.1527999106       17.2232723616        0.7096424943
  C        20.3151983487       17.9673675554        0.7481361278
  C        20.3230273315       17.9406845697        3.5605121531
  C        34.4389525249       17.2142796798       10.1724181189
  C        35.7474152018       17.1473816890       10.8822802171
  C        35.9888043299       16.1416903074       11.8338322946
  C        37.1729405984       16.1338106219       12.5655778792
  C        38.1529923914       17.1265687625       12.3688447286
  C        37.9169866239       18.1082089581       11.3872203823
  C        36.7274458541       18.1285717438       10.6618867389
  C        39.4014944225       17.1425045324       13.1662678801
  C        39.3772461623       17.1302028677       14.5882278549
  C        38.1598270693       17.2300059101       15.3323566418
  C        35.0605099969       26.6718293280       15.2913523721
  C        35.1936676961       26.6309620640       12.4591185317
  C        26.5670340979       17.8250000250       10.3261153887
  C        25.2486620930       17.8867163261       11.0162629366
  C        24.9749679266       18.9171844228       11.9289926315
  C        23.7578955033       18.9491981850       12.6030755835
  C        22.7872402664       17.9514793782       12.3880500679
  C        23.0579726236       16.9414195597       11.4473928662
  C        24.2760897124       16.9044538832       10.7725068551
  C        21.5249075604       17.9420302945       13.1622675832
  C        21.5454069453       17.9438616245       14.5833669719
  C        22.7627218804       17.8434250324       15.3289469367
  C        14.0456082446       17.8320548232       10.2839390516
  C        15.3521278797       17.8977800116       11.0012995206
  C        15.6102973822       18.9125649240       11.9355967505
  C        16.8208359367       18.9408470678       12.6242023317
  C        17.8044765864       17.9570585365       12.3995182644
  C        17.5519247742       16.9672847380       11.4314568675
  C        16.3408802196       16.9346702988       10.7440383354
  C        19.0707011708       17.9453749305       13.1700334359
  C        19.0641541790       17.9469990324       14.5916917877
  C        17.8534356074       17.8456739292       15.3465517791
  C        46.8034579833       17.2191270654       10.1585661582
  C        45.5100810028       17.1581528632       10.9013255071
  C        45.2962963937       16.1772723324       11.8822044156
  C        44.1118931953       16.1600317536       12.6146656892
  C        43.1107451106       17.1255950496       12.3900847888
  C        43.3218744298       18.0874914072       11.3837560603
  C        44.5068489808       18.1074197292       10.6520132570
  C        41.8565649204       17.1376745497       13.1785222611
  C        41.8615414890       17.1238723105       14.6010180613
  C        43.0712635069       17.2140713328       15.3589839987
  C        20.3080549478       17.9643280636       15.3038801119
  C        20.2960062719       17.9220857757       12.4916107450
  C        46.7838254778       17.2313509032        5.8871279427
  C        45.4801810696       17.1232542168        5.1689882995
  C        45.2630790569       16.1222005782        4.2096576796
  C        44.0751332378       16.0901145483        3.4825808700
  C        43.0727427133       17.0562294168        3.6965728060
  C        43.2804587939       18.0280230883        4.6936351624
  C        44.4697144292       18.0663325071        5.4157284582
  C        41.8247729814       17.0732829508        2.8996529392
  C        41.8459579052       17.0891333903        1.4779956639
  C        43.0638255576       17.1958462979        0.7359120304
  C        46.1531149322       26.6368890143        0.7262339407
  C        46.1623351424       26.6561720937        3.5358840460
  C        14.0407504455       17.8291225648        5.7061449302
  C        15.3553247728       17.9002278112        5.0062306732
  C        15.6236347210       18.9238507011        4.0854350643
  C        16.8477462611       18.9638176197        3.4229018969
  C        17.8282191103       17.9793150000        3.6563136491
  C        17.5651481704       16.9814751495        4.6120076026
  C        16.3432109650       16.9409134379        5.2786553621
  C        19.0945933874       17.9648366698        2.8886270184
  C        19.0769763387       17.9567760299        1.4675296192
  C        17.8598833759       17.8493212464        0.7227093968
  C        28.8084559374       14.0843376451       10.3526016399
  C        28.2122343195       12.9071351200       11.0399013928
  C        28.9388592562       12.1892817223       12.0020156349
  C        28.3528783704       11.1094566690       12.6581538677
  C        27.0219342499       10.7318462159       12.3871249494
  C        26.3183014009       11.4295298137       11.3884692929
  C        26.9014390461       12.5090144619       10.7315260215
  C        26.3585807710        9.6498575074       13.1497526368
  C        26.3346017686        9.6765990234       14.5706887540
  C        26.8336420761       10.7882663560       15.3209067438
  C        32.1700627303       21.2560012417       10.0970356638
  C        32.7505830238       22.4173282873       10.8164118984
  C        32.0069613357       23.0672095200       11.8187564198
  C        32.5769345546       24.0930064447       12.5626798175
  C        33.9007021781       24.5234532082       12.3160644453
  C        34.6201301469       23.8916157590       11.2766209606
  C        34.0631741630       22.8445528439       10.5498177779
  C        34.5302322178       25.5868509379       13.1111649182
  C        34.4813152776       25.5782714182       14.5648551857
  C        33.9939497355       24.4780391387       15.2892048924
  C        25.7159542108        8.5996852038       15.2837874052
  C        25.7254530227        8.5993069719       12.4722033543
  C        32.1116094840       21.2189723049        5.8914669411
  C        32.6941389978       22.3696794254        5.1624523199
  C        31.9525417850       23.0305042100        4.1669886531
  C        32.5303830396       24.0535857951        3.4243003872
  C        33.8590282110       24.4697239740        3.6690173610
  C        34.5730374577       23.8331108140        4.7096794516
  C        34.0104022564       22.7857720534        5.4293632740
  C        34.4955226444       25.5443394822        2.8952203834
  C        34.4629854934       25.5569382948        1.4415842448
  C        33.9836858022       24.4680742085        0.6952663145
  C        40.6066681370       17.0894054649        0.7563992404
  C        40.5947399689       17.0938976751        3.5661475734
  C        28.6609195306       14.0619901788        5.8214585228
  C        28.0598378459       12.9164749313        5.0826941277
  C        28.8194456672       12.2045789609        4.1407039533
  C        28.2487707730       11.1507623101        3.4324726597
  C        26.9058526956       10.7816608073        3.6458247851
  C        26.1659581756       11.4728566197        4.6236772300
  C        26.7342751870       12.5286109703        5.3330177965
  C        26.2794772110        9.6871436557        2.8682130947
  C        26.2949151515        9.6961051314        1.4467294315
  C        26.8122090982       10.7986755408        0.6968326170
  C        18.1355462263        3.1805035387       10.3170216546
  C        17.4057082576        4.2779656272       11.0157947932
  C        16.3896147078        3.9994200201       11.9427612790
  C        15.7415711691        5.0392182045       12.6063638450
  C        16.0936568528        6.3828724524       12.3669375661
  C        17.0834702937        6.6527789108       11.4037800799
  C        17.7327468354        5.6154800918       10.7387384699
  C        15.4692254723        7.4905740303       13.1299619027
  C        15.4843922514        7.4900854175       14.5516999469
  C        16.1859785346        6.4964993511       15.3048925544
  C        42.9459953086       31.8596555509       10.0725789111
  C        43.6463504851       30.7716949288       10.8169050375
  C        44.5917869106       31.0930754732       11.8029439655
  C        45.1976687078       30.0876231612       12.5506511352
  C        44.8709596317       28.7346750971       12.3357556086
  C        43.9453442585       28.4200574560       11.3224920143
  C        43.3363493873       29.4252797940       10.5746378773
  C        45.4884735962       27.6552706918       13.1388602864
  C        45.4926816379       27.6806477518       14.5606017334
  C        44.8053368033       28.6885362105       15.3072127213
  C        14.8553352019        8.5625007918       15.2641207615
  C        14.8737445775        8.5622770232       12.4515059537
  C        42.9468150515       31.9615634907        5.8098663162
  C        43.6913688560       30.8852049597        5.0951567339
  C        44.6563307318       31.1912242841        4.1233684777
  C        45.2778459348       30.1716970751        3.4054575034
  C        44.9538053711       28.8215064999        3.6431244264
  C        44.0202819852       28.5235855149        4.6537356983
  C        43.3920498054       29.5403936854        5.3659464417
  C        45.5627895214       27.7240278963        2.8578879111
  C        45.5331578332       27.7170475285        1.4365511680
  C        44.8266091219       28.7071433953        0.6836194263
  C        35.0527195705       26.6597637556        0.7368018956
  C        35.1582936137       26.5756676649        3.5695287487
  C        18.1484367207        3.2463523450        5.7068535618
  C        17.4299458321        4.3436505639        4.9970931607
  C        16.4143165342        4.0524305548        4.0740564399
  C        15.7658307863        5.0829816258        3.3985777574
  C        16.1209591051        6.4280861731        3.6210142586
  C        17.1126717347        6.7117118328        4.5778100501
  C        17.7603478808        5.6826888108        5.2575001633
  C        15.4901995837        7.5237142608        2.8486413311
  C        15.4957468091        7.5071391001        1.4274823991
  C        16.1924227178        6.5054193585        0.6807093086
  H        10.6721808685       12.4657706501        3.9044666884
  H        11.6943828751       10.5509183761        2.6627285290
  H        15.3911524500       11.1679629897        4.7724144166
  H        14.3510358235       13.0707768093        6.0177746254
  H        13.3752376135       11.6307717891        1.2011243906
  H        50.3225623779       22.7481183378        3.9863667858
  H        49.3191730612       24.6224440596        2.6804739851
  H        45.6425465468       24.1620797533        4.8646519834
  H        46.6633328431       22.2911270660        6.1729635936
  H        47.6298629617       23.5756792375        1.2461954588
  H        14.8721048872        8.5879487193        4.6084370545
  H        50.2866282514       22.7019163789       12.0611051433
  H        49.2685579374       24.5747074158       13.3610923353
  H        45.6110091580       24.1104465620       11.1447948318
  H        46.6530522290       22.2551589322        9.8304346070
  H        47.6077679082       23.5516067022       14.7969872583
  H        40.6364669971       17.1484500003       11.4116277020
  H        48.6869493390       14.0950570010        7.7999805024
  H        10.6808946872       12.4669460279       12.0935210947
  H        11.6887748962       10.5248084123       13.2971136159
  H        15.3923427391       11.1573442147       11.2049028473
  H        14.3644940766       13.0860172795        9.9896103933
  H        13.3745691680       11.6215699639       14.7530757400
  H        47.9302485117       14.2181801732        9.7112743347
  H        47.7800490562       14.3739543913        6.4956055918
  H        49.0838482190       18.5528288694       10.8672807447
  H        10.4163862714       14.1343239560        7.9989323084
  H        24.4744624462        3.0258667246        3.9098952834
  H        25.6037203062        4.8844521228        2.6708605959
  H        23.2058345434        7.7498705875        4.8004625037
  H        22.0968707834        5.8821843908        6.0433672501
  H        23.8085424395        5.7815624075        1.2244971971
  H        36.3730344863       32.1822088724        3.9630189844
  H        35.2572168951       30.3568239245        2.6843055507
  H        37.4977400523       27.4371917530        4.9195542485
  H        38.6134403574       29.2787745674        6.1859899859
  H        36.9962151576       29.4296407281        1.2764164242
  H        25.6753661168        8.6138874620        4.6265827977
  H        36.4543597004       32.2400060151       12.1175469740
  H        35.3443998114       30.4254353805       13.4098057879
  H        37.4895181544       27.4867309631       11.1064049778
  H        38.5960449417       29.3157159754        9.8223949710
  H        37.0086483409       29.4508328077       14.8155687098
  H        46.1093088948       26.5877772270       11.3856142022
  H        44.6678996403       35.1157987591        7.8142014269
  H        24.4569197172        3.0308000953       12.0597971137
  H        25.6078901916        4.8666260300       13.3004300380
  H        23.2008293371        7.7645539554       11.2260562363
  H        22.0626175449        5.9166195855        9.9842160737
  H        23.8161583690        5.7801859322       14.7749017284
  H        44.9522516949       34.3891060676        9.6943150831
  H        44.9001902189       34.2062870715        6.4911334897
  H        40.6624868622       33.2070293070       10.8521051317
  H        23.1501368879        1.9573861507        8.0030406330
  H        25.7655527974       19.6727622716        3.9610411468
  H        23.6056131955       19.7318136308        2.7160744937
  H        22.3132495316       16.1990707895        4.7977388843
  H        24.4792796580       16.1487995649        6.0425580920
  H        23.7098901626       17.7326312605        1.2363183845
  H        35.1242680529       15.4550524152        3.9826981874
  H        37.2395948702       15.3996067377        2.6619514895
  H        38.7159091153       18.7585684949        4.9099870109
  H        36.5977548701       18.7910196863        6.2370363918
  H        37.2122108186       17.3383249870        1.2405476470
  H        20.3262407944       17.9673681882        4.6487512011
  H        35.2363548490       15.3723320356       11.9907174993
  H        37.3544570245       15.3500458642       13.2980627265
  H        38.6660599092       18.8812938150       11.2281762290
  H        36.5322313075       18.9070255825        9.9280125590
  H        37.2249914982       17.3489566756       14.7919747472
  H        35.1873739476       26.6447835642       11.3709170217
  H        28.4625507560       21.1732009518        7.8862643489
  H        25.7228591306       19.6903363372       12.0872929234
  H        23.5432905134       19.7543038756       13.3025716532
  H        22.3138817982       16.1658705702       11.2784963357
  H        24.4984727472       16.1137256215       10.0602707187
  H        23.6981441926       17.7294187332       14.7888891129
  H        28.9307703954       21.7831187145        9.7335634923
  H        29.1519093550       21.7622435809        6.5230051452
  H        32.3457495532       18.7559672623       10.7796159390
  H        27.3335882223       19.0801377416        8.0711380058
  H        14.8515615946       19.6728624148       12.1067132690
  H        17.0194780010       19.7321560161       13.3438418125
  H        18.3029022034       16.2009291839       11.2507273346
  H        16.1315334549       16.1579772484       10.0123889901
  H        16.9135440634       17.7303043932       14.8147844639
  H        46.0750063667       15.4399744168       12.0631479600
  H        43.9482790237       15.3906658794       13.3661165333
  H        42.5588003093       18.8425171932       11.2062309706
  H        44.6849173575       18.8641238002        9.8915188603
  H        44.0125783476       17.3313196539       14.8298173695
  H        20.2935583599       17.9418221161       11.4032301041
  H        46.0410478435       15.3823830241        4.0351917484
  H        43.9112166735       15.3122421846        2.7399464205
  H        42.5130735633       18.7797285971        4.8666894198
  H        44.6496746968       18.8357822448        6.1626320262
  H        43.9987733254       17.2982563311        1.2792323736
  H        46.1991470413       26.6828963287        4.6233298760
  H        52.7411478803       21.0627867211        8.1947069571
  H        14.8642579449       19.6819459327        3.9074170796
  H        17.0587392685       19.7606179957        2.7129025181
  H        18.3146532812       16.2146569741        4.7968242532
  H        16.1229448720       16.1599979857        6.0024279101
  H        16.9247940588       17.7372560630        1.2632371870
  H        52.3224906215       21.6736140241        6.2946730454
  H        52.0137141142       21.7025606821        9.4955919128
  H        49.0678468041       18.6081549182        5.2039080822
  H        13.2473050533       19.0165718507        7.9759645513
  H        29.9606769309       12.4918828641       12.2201288433
  H        28.9171739815       10.5526835747       13.4033391865
  H        25.2902781246       11.1465857593       11.1722377967
  H        26.3532029778       13.0685029844        9.9778973419
  H        27.2054796911       11.6565118862       14.7849965833
  H        30.9891514181       22.7356859408       12.0111129414
  H        31.9930407412       24.5926400296       13.3322652131
  H        35.6461001726       24.2001212652       11.0870902831
  H        34.6357606053       22.3303564462        9.7813761593
  H        33.6477663307       23.5988145323       14.7533186145
  H        25.7615868137        8.5807411973       11.3843333607
  H        30.9305700127       22.7101069943        3.9772966995
  H        31.9518849287       24.5561211496        2.6526529684
  H        35.6016433467       24.1323332589        4.8991939374
  H        34.5796261877       22.2617539047        6.1936640562
  H        33.6287489325       23.5821243816        1.2142938587
  H        40.5896089446       17.0545286690        4.6538208044
  H        32.5310353649       14.1126547214        8.1721946368
  H        29.8563971070       12.4875609874        3.9757624542
  H        28.8392712410       10.5958272230        2.7065732057
  H        25.1278554761       11.1975979621        4.7978407388
  H        26.1618026057       13.0859954969        6.0705688397
  H        27.1674685840       11.6751715552        1.2308953716
  H        33.2774264241       14.1607383528        6.3423715085
  H        33.4124807834       14.3449998862        9.5454285937
  H        32.3012759464       18.6685212599        5.2265780575
  H        30.1762886582       14.1358951023        8.0617478665
  H        16.1177279761        2.9627803435       12.1288123830
  H        14.9518754727        4.8195967158       13.3216914496
  H        17.3660784568        7.6856807854       11.2110501707
  H        18.5150685428        5.8180347621       10.0111609399
  H        16.7522783628        5.7390083673       14.7713171276
  H        44.8278258176       32.1402425335       11.9769954866
  H        45.9373312567       30.3414398120       13.3067783715
  H        43.6822445869       27.3780445312       11.1526030600
  H        42.5994181968       29.1902878962        9.8101208839
  H        44.2299614535       29.4362210842       14.7687784974
  H        14.8501990356        8.5453868399       11.3632900506
  H        44.8995304374       32.2340158363        3.9320468217
  H        46.0246471173       30.4130568414        2.6521475653
  H        43.7629851942       27.4838783239        4.8450076862
  H        42.6451129923       29.3178667344        6.1240922082
  H        44.2680465824       29.4699924685        1.2182304032
  H        35.1432660883       26.5727610799        4.6576331225
  H        36.6048680642       35.1336744342        8.1809752064
  H        16.1433660999        3.0127302483        3.9047376465
  H        14.9733311464        4.8558763470        2.6887444608
  H        17.3964401680        7.7471966276        4.7542348855
  H        18.5434412137        5.8929971938        5.9820808154
  H        16.7636972598        5.7550981851        1.2192186208
  H        36.2802950221       34.4802223790        6.2743122548
  H        36.3843431401       34.2075531177        9.4999666766
  H        40.5778691993       33.2012278876        5.1548184986
  H        17.4703751412        1.9461260526        7.9740682941
  H        28.7378871248       19.1851910793       12.3675489627
  H        28.7301974994       19.1466850562        3.7553328842
  H        30.8654875065       15.2443452609        3.7726839873
  H        32.4272795616       16.3262139547       12.3199611850
  H        18.8546251876        0.8697602697       12.3350906868
  H        40.5279986786       35.2292171833        3.9523839097
  H        42.3224699573       34.4175499640        3.5915041633
  H        22.0878331146        0.6928442747       12.3508591097
  H        11.5964718175       18.7129671346       12.3829465085
  H        52.2646252579       18.4315416633        3.6770673744
  H        49.2553756301       16.4763176465        3.5839327107
  H        10.1503335020       15.7980257718       12.2923276780
  H        50.8500672350       17.6925665549        3.9540003834
  H        10.0461042227       17.3947176342       12.0518432618
  H        20.2153471051        0.0019547640       12.0419003553
  H        39.1840947232       36.1246327042        3.6867549518
 Ni        30.5600281762       17.6243861861        3.6337230452
 Ni        30.5499281307       17.6890782085       12.0086158546
  O        10.6497329028       14.3652662032        5.4861343306
  O        12.6131168990       14.6573351841        6.5838703166
  O        49.1479488201       16.8458356489        7.9897345602
  O        50.3502324097       20.9358144024        5.6480892303
  O        48.3484466997       20.5932786839        6.6657979079
  O        11.0517083626       17.0539560076        6.5005573859
  O        50.3207803623       20.8815684511       10.4069610885
  O        48.3466402880       20.5864326484        9.3270923684
  O        49.5441685622       18.2486171958       10.0684097673
  O        12.3589266715       18.6247877206        7.9996754398
  O        48.6933502148       14.1488876476        6.7512645325
  O         8.2097781183       14.2106833692        9.3225640366
  O        10.7351300197       14.5067601755       10.6641497771
  O        12.5718528325       14.5827229861        9.3286370949
  O        22.8445672943        2.0429050075        5.4869104323
  O        21.6048912267        3.5921089590        6.5899117321
  O        42.0583158359       34.1370232456        7.9791318324
  O        37.9816656707       33.1395711673        5.5721153878
  O        39.2187089673       31.5762880955        6.6655354121
  O        20.3089506012        1.0402959316        6.5016881279
  O        38.0240875675       33.1868618284       10.4163654768
  O        39.2193921992       31.5820331301        9.3279509047
  O        40.6516833692       33.7693778485       10.0606337607
  O        18.2556838271        1.3758745388        7.9968312107
  O        44.6215123609       35.1004308976        6.7588068306
  O        24.2050626327       -0.0001770264        9.3207239814
  O        22.7528298049        2.0566631139       10.5826816982
  O        21.6244748007        3.5956862972        9.3423226665
  O        27.4465961727       18.7037429880        5.4945138312
  O        26.7044382661       16.9138580578        6.6734543348
  O        30.6721084592       19.3753261194        8.0409749028
  O        33.5803111871       16.2711395372        5.6680634089
  O        34.2816450260       18.1691205662        6.7310704773
  O        29.5569072788       17.0620867628        6.5781975970
  O        33.6029234339       16.2697213680       10.4050835561
  O        34.2329948318       18.2341753079        9.4205429201
  O        31.6147881160       18.2994747036       10.3253450282
  O        30.2922668735       15.1004117465        8.0955762239
  O        28.5133696553       21.0897341467        6.8261732545
  O        28.4772071969       21.0229701461        9.3320891119
  O        27.4545371762       18.6864064842       10.6547589877
  O        26.6934316023       16.9360682612        9.4102621867
  O        13.1469155911       18.6937488156       10.5861583616
  O        13.9177949555       16.9161570445        9.4040479035
  O        50.5957589521       19.3502128131        8.0205282809
  O        47.6812213212       16.3273937870       10.4179668969
  O        46.9515947195       18.1761718842        9.3248450328
  O        11.0693831437       17.0158321449        9.4895883552
  O        47.6747011250       16.3356548791        5.6524022554
  O        46.9244877642       18.2359159640        6.6628451212
  O        49.5686083518       18.3174891083        5.9821533670
  O        10.3189501246       15.1001794796        7.9965466506
  O        52.6711738600       21.0282158927        9.2419113553
  O        12.1469779216       20.8913409305        6.6732194067
  O        13.1054001191       18.6143622843        5.3258039118
  O        13.9556757453       16.9868062408        6.6648555102
  O        29.9999773025       14.4298573285       10.6623478442
  O        28.0679385056       14.6603108143        9.4826514936
  O        32.0892641016       16.8696576436        8.0703392139
  O        30.9522627702       20.9590741115       10.3310442092
  O        32.9467889321       20.5773626756        9.3233786309
  O        29.5840279806       17.0917371461        9.5624812471
  O        30.8715578860       20.9568339620        5.7367467830
  O        32.9216818773       20.5067753516        6.5924204704
  O        31.6401123171       18.2455249506        5.8142270248
  O        28.2270594415       18.7014673270        8.0569834407
  O        32.4973724625       14.1963846811        9.2450104579
  O        32.3936402965       14.1590042116        6.7496969973
  O        29.8374140521       14.4371916460        5.5019228099
  O        27.9659093145       14.6016307589        6.7523352296
  O        17.8889170936        1.9667810374       10.6628693115
  O        18.9564095696        3.5265949358        9.4078854849
  O        39.1677377972       34.1388756104        7.9963825682
  O        43.2800573449       33.0592120051       10.3311387156
  O        42.0351554754       31.5059697982        9.2418092361
  O        20.3174234099        1.0365262295        9.4808381107
  O        43.2757174891       33.1826390971        5.5751762420
  O        42.0051954665       31.5839312584        6.5824681102
  O        40.5786144252       33.7751066275        5.9361010023
  O        22.3673088235        1.3838292334        7.9970639714
  O        36.6731836538       35.0993540372        9.2334745649
  O        16.4455110166        0.0639305506        6.6681480891
  O        17.9367359790        2.0430459050        5.3268932821
  O        18.9191767403        3.5922425005        6.6659320947
  O        29.6060355176       19.1897638670        4.1730124803
  O        29.6324750885       19.2964317137       11.9849474301
  O        31.3802675298       15.9871159983        4.1477138217
  O        31.5296507918       16.0982390147       12.0191015011
  O        39.4569925315       35.2438686265        4.0019688110
  O        19.1422179576        0.0049293586       11.9911824121
  O        41.9695562801       35.1725755552        4.0873805769
  O        21.6917964777       -0.0693234928       11.8962531144
  O        51.3647676291       18.6143735647        4.0051781224
  O        10.7508756344       18.7471405041       11.9050900324
  O        50.0795267385       16.4127125684        4.0916806726
  O         9.5244214736       16.4830834435       11.9912707801
 Zr         9.2975882573       16.0530169260        6.1821966182
 Zr        49.8369653016       16.0069032745        9.7465373591
 Zr        22.0716572879        0.0279881505        6.1897789280
 Zr        42.4591823390       35.1521208347        9.8004922199
 Zr        29.5511453779       19.1194413757        6.2941284911
 Zr        29.5215670693       19.2427855783        9.8001104397
 Zr        11.0376570048       19.0526766167        9.8278493350
 Zr        11.0434470272       19.1553640036        6.2509455044
 Zr        31.3467858455       16.0312661930        9.8401227455
 Zr        31.3721275562       15.9615054999        6.2963235933
 Zr        18.5999260037       -0.0049439033        9.7638902295
 Zr        18.5058055946       -0.0097488721        6.2133785705
 Zr        12.3015998004       16.3227950930        7.9904910901
 Zr        48.6168267739       18.8335527853        8.0098038716
 Zr        20.3141911142        2.4706648472        7.9913229711
 Zr        40.6392015777       32.6847796137        7.9792555655
 Zr        28.3222068258       16.3410231371        8.0816583505
 Zr        32.6299935543       18.8391014002        7.9986151129
  H        29.6604278822       17.1338104832        2.4867023155
  H        29.7940014327       17.3051984218       13.1708919205
