     574
 i =      186, E =     -4778.9114475425
  C        11.8589619471       14.0535365244        5.7415102154
  C        12.4565122537       12.8907122268        5.0232004589
  C        11.7046801567       12.1713991668        4.0819309824
  C        12.2811049979       11.1092213843        3.3896013025
  C        13.6218368735       10.7397832552        3.6170254582
  C        14.3552039920       11.4438138429        4.5900033332
  C        13.7822677213       12.5087774248        5.2814960529
  C        14.2613336053        9.6490881263        2.8436370212
  C        14.2564314369        9.6569207839        1.4219439272
  C        13.7432336777       10.7590544709        0.6680792927
  C        49.1270131085       21.2332162662        5.8796630248
  C        48.5502785556       22.4012883510        5.1526695155
  C        49.3002001280       23.0684186873        4.1714729230
  C        48.7332490967       24.1075586869        3.4382676307
  C        47.4028152983       24.5094129809        3.6671179029
  C        46.6720180350       23.8607766125        4.6808969999
  C        47.2344783232       22.8158711245        5.4102401532
  C        46.7724849258       25.5870529895        2.8698309128
  C        46.7612693162       25.5573163500        1.4480716606
  C        47.2610877023       24.4421565555        0.7046004433
  C        14.8603263217        8.5705743838        0.7086653257
  C        14.8922285120        8.5972105992        3.5202782071
  C        49.1133560380       21.2033418681       10.1453438943
  C        48.5279858700       22.3647595206       10.8725681420
  C        49.2669900045       23.0249816239       11.8659627088
  C        48.6907145177       24.0595881593       12.5974136001
  C        47.3605624853       24.4569212361       12.3586822565
  C        46.6404289805       23.8125718098       11.3346014756
  C        47.2139441178       22.7766440047       10.6028211943
  C        46.7220602659       25.5318573224       13.1497060109
  C        46.7335171410       25.5280881304       14.5714193718
  C        47.2488036361       24.4288266707       15.3278387172
  C        40.6332076500       17.1205604611       15.3108201207
  C        40.6464350915       17.1860430883       12.5020494617
  C        11.8831634693       14.0865804985       10.2855519990
  C        12.4725522863       12.9109543772       10.9898755205
  C        11.7149551023       12.1775000479       11.9157324101
  C        12.2815830585       11.0950587018       12.5841120688
  C        13.6205478009       10.7216552505       12.3525684089
  C        14.3586704369       11.4375455160       11.3921284748
  C        13.7931973343       12.5187079561       10.7194619582
  C        14.2540549284        9.6247992270       13.1229065557
  C        14.2526261660        9.6446473560       14.5447403352
  C        13.7427029221       10.7535617544       15.2918278580
  C        22.5113976595        3.2451029598        5.7519623965
  C        23.2235470269        4.3503253833        5.0500248525
  C        24.2197134503        4.0705992998        4.1027699737
  C        24.8450009252        5.1101396327        3.4190033157
  C        24.4898012840        6.4519515691        3.6618155057
  C        23.5214334901        6.7231166940        4.6458105327
  C        22.8917403717        5.6855218326        5.3282256851
  C        25.0942708405        7.5595328162        2.8863966781
  C        25.0700355448        7.5530239029        1.4645450062
  C        24.3755536991        6.5507179158        0.7152161287
  C        38.3036134586       31.9304522491        5.8487310771
  C        37.5756303950       30.8408990392        5.1375673837
  C        36.6172039728       31.1447754809        4.1588628489
  C        36.0015634825       30.1243724825        3.4394554611
  C        36.3297421584       28.7755670448        3.6780643387
  C        37.2589902186       28.4790884068        4.6927635581
  C        37.8788341090       29.4982280726        5.4107761634
  C        35.7275146061       27.6836895100        2.8813979822
  C        35.7584770911       27.6976296557        1.4601802141
  C        36.4655647143       28.6987758149        0.7224192460
  C        25.6887959165        8.6268801336        0.7467287475
  C        25.6876597378        8.6355182579        3.5591881257
  C        38.3289104950       31.9624492119       10.1556079834
  C        37.6074129747       30.8883525697       10.8966109688
  C        36.6781521438       31.1958005899       11.9019928252
  C        36.0690441756       30.1762254774       12.6308427558
  C        36.3752795128       28.8242305385       12.3775307992
  C        37.2818471719       28.5266663239       11.3418081100
  C        37.8930362516       29.5427509152       10.6142805048
  C        35.7689014237       27.7244866333       13.1618185031
  C        35.7801071321       27.7182110160       14.5836530796
  C        36.4753214774       28.7089777865       15.3457399000
  C        46.1355008022       26.6207367202       15.2815412156
  C        46.0883036482       26.5803428526       12.4736489787
  C        22.4635953806        3.2570592608       10.2572208082
  C        23.1623666696        4.3663197091       10.9761143417
  C        24.1697885445        4.0816176157       11.9119424232
  C        24.8011486574        5.1124178193       12.6045073946
  C        24.4456499476        6.4585580442       12.3851605211
  C        23.4620072838        6.7365091374       11.4169371449
  C        22.8264105790        5.7061005749       10.7243549487
  C        25.0745845085        7.5576998441       13.1612879584
  C        25.0605476280        7.5516393011       14.5843551031
  C        24.3692300986        6.5511368240       15.3381918240
  C        26.6414818500       17.8306887036        5.7494506528
  C        25.3300256113       17.8872483874        5.0370369685
  C        25.0742507500       18.8769990292        4.0752101558
  C        23.8552353874       18.9061328487        3.4012907482
  C        22.8565203990       17.9460020069        3.6627578729
  C        23.1085427113       16.9797150476        4.6551993508
  C        24.3279599334       16.9475252963        5.3298696792
  C        21.5816928558       17.9343213899        2.9007679175
  C        21.5812207751       17.9099794792        1.4778450593
  C        22.7860027238       17.7751742059        0.7176886987
  C        34.4385383216       17.1867649916        5.8858628833
  C        35.7357475518       17.1161157848        5.1525750013
  C        35.9414975227       16.1394404424        4.1663811070
  C        37.1248737742       16.1208269508        3.4330611807
  C        38.1330043792       17.0748255107        3.6713811553
  C        37.9319156888       18.0280274258        4.6871274143
  C        36.7451622862       18.0541938617        5.4146336194
  C        39.3868681695       17.0855647515        2.8858707834
  C        39.3802463560       17.1154126555        1.4651390782
  C        38.1716822195       17.2520033537        0.7122685854
  C        20.3344272110       17.9347180807        0.7693553913
  C        20.3565585271       17.9415065033        3.5829629920
  C        34.4817989354       17.2550737868       10.1471582028
  C        35.7781501146       17.1978722209       10.8829098733
  C        35.9854933443       16.2198408342       11.8683624655
  C        37.1665552753       16.2049709681       12.6040726849
  C        38.1694851699       17.1671125541       12.3745838025
  C        37.9660763753       18.1231895775       11.3619874657
  C        36.7825818631       18.1431192451       10.6281019570
  C        39.4167399072       17.1747676659       13.1690568967
  C        39.3952473642       17.1635750635       14.5899824630
  C        38.1796382921       17.2757422294       15.3358523474
  C        35.1487784133       26.6400330204       15.2882323441
  C        35.1786122640       26.6536404405       12.4793602041
  C        26.5743804346       17.8283690711       10.3258064786
  C        25.2601747603       17.8730553936       11.0330619778
  C        25.0019604161       18.8700185445       11.9861582057
  C        23.7840355201       18.8958961884       12.6597796057
  C        22.7949343070       17.9247434852       12.4047449726
  C        23.0482849347       16.9526126869       11.4200452407
  C        24.2668192273       16.9245367818       10.7443938592
  C        21.5311291213       17.9070445321       13.1774588165
  C        21.5551067595       17.8953870774       14.5991516288
  C        22.7725019285       17.7692653337       15.3411769694
  C        14.0477314591       17.8293581949       10.2891248005
  C        15.3522912227       17.8880722697       11.0142127313
  C        15.6081460877       18.8920432518       11.9614758362
  C        16.8170880169       18.9147742391       12.6545502478
  C        17.8052914377       17.9363475899       12.4232853335
  C        17.5541317703       16.9567526898       11.4437160707
  C        16.3447419356       16.9294684978       10.7519645504
  C        19.0745068376       17.9201634089       13.1928462608
  C        19.0735713653       17.9187466931       14.6156038622
  C        17.8666439366       17.8244858022       15.3774694581
  C        46.8058452071       17.2186312297       10.1567488133
  C        45.5146051513       17.1586678835       10.8991633971
  C        45.2983723964       16.1718675952       11.8729633669
  C        44.1157307163       16.1580066118       12.6072302914
  C        43.1219862075       17.1320555261       12.3897027442
  C        43.3348971367       18.0982057073       11.3883490965
  C        44.5175192101       18.1149962036       10.6541659030
  C        41.8705587444       17.1494912694       13.1790503541
  C        41.8787243315       17.1326680010       14.6005593304
  C        43.0896601223       17.2106926706       15.3580461436
  C        20.3205289447       17.9258930113       15.3240588525
  C        20.2989011488       17.8987746660       12.5108277648
  C        46.7864599989       17.2302025478        5.8887627466
  C        45.4854399957       17.1187843817        5.1703859052
  C        45.2751677184       16.1168139606        4.2108664603
  C        44.0895622779       16.0816890416        3.4812428483
  C        43.0854839471       17.0453878472        3.6952419964
  C        43.2863129367       18.0175928302        4.6928214477
  C        44.4731913406       18.0591749354        5.4173694149
  C        41.8399797094       17.0612012493        2.8975055439
  C        41.8637367986       17.0853322245        1.4767882852
  C        43.0824345686       17.1881363482        0.7347642695
  C        46.1532411469       26.6371780156        0.7263051307
  C        46.1626562371       26.6562615836        3.5359387877
  C        14.0466738964       17.8327167614        5.7088953222
  C        15.3684641058       17.9091491034        5.0198426100
  C        15.6422628889       18.9256969952        4.0923842813
  C        16.8719460934       18.9648121079        3.4386764900
  C        17.8562270443       17.9864174902        3.6856924503
  C        17.5893134729       16.9991765522        4.6519000468
  C        16.3618214556       16.9596668983        5.3094461005
  C        19.1237499621       17.9616017090        2.9163234046
  C        19.0993683488       17.9387526948        1.4945572859
  C        17.8792671257       17.8334410027        0.7537357652
  C        28.7951985410       14.1224083243       10.4014877553
  C        28.1931134818       12.9472107339       11.0932009581
  C        28.9082936788       12.2248902369       12.0597868474
  C        28.3130512253       11.1428478439       12.7041110949
  C        26.9881217952       10.7607275494       12.4094120525
  C        26.2956640599       11.4656103091       11.4082962221
  C        26.8886797990       12.5457260251       10.7605349012
  C        26.3189243175        9.6766056062       13.1651051559
  C        26.2941737953        9.7051206067       14.5861982836
  C        26.7804874220       10.8240971333       15.3342473151
  C        32.1826508550       21.2394997716       10.1385911805
  C        32.7779716498       22.4055216363       10.8574570646
  C        32.0295163463       23.0824010581       11.8328090800
  C        32.6004105368       24.1204271781       12.5628655585
  C        33.9352757807       24.5091039036       12.3385767578
  C        34.6660960327       23.8509880914       11.3314804744
  C        34.0974760236       22.8077522867       10.6030286406
  C        34.5641170851       25.5840331487       13.1394720945
  C        34.5556706926       25.5564767734       14.5611317494
  C        34.0439408849       24.4433912155       15.3004523415
  C        25.6883805102        8.6228163678       15.3018097823
  C        25.6912758985        8.6216650678       12.4885251186
  C        32.1039439898       21.2310674575        5.8801855123
  C        32.6927450947       22.3850720296        5.1397284661
  C        31.9550032076       23.0544282419        4.1509426777
  C        32.5370998735       24.0816696973        3.4119199959
  C        33.8704517453       24.4714048056        3.6456339378
  C        34.5905385328       23.8177029627        4.6638142461
  C        34.0136450001       22.7837387985        5.3965809999
  C        34.5117115366       25.5509799957        2.8600314307
  C        34.5268514298       25.5406108277        1.4382878929
  C        34.0285282270       24.4366464103        0.6773221392
  C        40.6254271892       17.0959360584        0.7548712743
  C        40.6102454435       17.0771787790        3.5643424023
  C        28.7195627722       14.0972811115        5.7851209602
  C        28.1127500640       12.9461569281        5.0555992272
  C        28.8468702254       12.2464676017        4.0857670828
  C        28.2670534708       11.1831132274        3.3983728533
  C        26.9367969286       10.7938663946        3.6542215022
  C        26.2206416689       11.4799485184        4.6528857266
  C        26.7992186426       12.5428835919        5.3433944946
  C        26.2955001046        9.7014993030        2.8835857092
  C        26.2842146932        9.7174165388        1.4617925640
  C        26.7742829905       10.8311604320        0.7101110330
  C        18.1354363604        3.1811805815       10.3171566547
  C        17.4061712706        4.2783838420       11.0157011389
  C        16.3903008799        4.0000577096       11.9430802604
  C        15.7426372605        5.0400546728       12.6065862309
  C        16.0947358368        6.3837665002       12.3670608552
  C        17.0843015922        6.6532643897       11.4034763688
  C        17.7333353817        5.6159034803       10.7383991248
  C        15.4704111167        7.4914431615       13.1301334263
  C        15.4855316009        7.4906074687       14.5518480053
  C        16.1870612251        6.4969592058       15.3049968581
  C        42.9459868221       31.8596566942       10.0728970077
  C        43.6464588254       30.7719754342       10.8168538290
  C        44.5917720611       31.0933416434       11.8031072159
  C        45.1975464904       30.0878149072       12.5507622522
  C        44.8714148202       28.7347167848       12.3356974208
  C        43.9458837629       28.4203406898       11.3222230447
  C        43.3370065094       29.4254592041       10.5742008845
  C        45.4889395524       27.6553934329       13.1389018917
  C        45.4928817397       27.6809054143       14.5605997365
  C        44.8057668686       28.6889438230       15.3072099315
  C        14.8565446637        8.5630653194       15.2642418742
  C        14.8753331447        8.5633428245       12.4515684236
  C        42.9465408480       31.9617838867        5.8090087431
  C        43.6918556825       30.8856213937        5.0955464142
  C        44.6562208118       31.1915342819        4.1230349539
  C        45.2777527447       30.1719488792        3.4052959681
  C        44.9542135047       28.8216131598        3.6431287072
  C        44.0209893986       28.5239488096        4.6541519476
  C        43.3927376047       29.5407132691        5.3663446894
  C        45.5631962766       27.7241732288        2.8578830990
  C        45.5333294500       27.7173766571        1.4365867155
  C        44.8270026888       28.7075816679        0.6836035710
  C        35.1359815443       26.6307830423        0.7331022100
  C        35.1231749833       26.6088969767        3.5429663548
  C        18.1487132357        3.2470950534        5.7065736926
  C        17.4302972747        4.3439004953        4.9972074511
  C        16.4148203574        4.0526834148        4.0739008815
  C        15.7665389165        5.0833468191        3.3985588656
  C        16.1215015619        6.4285459838        3.6210600395
  C        17.1132289204        6.7118886469        4.5779647787
  C        17.7608784486        5.6829409329        5.2576964292
  C        15.4909179103        7.5242212945        2.8486576748
  C        15.4965991617        7.5074957356        1.4275285881
  C        16.1933176808        6.5057790807        0.6808100099
  H        10.6724265704       12.4652320263        3.9051711296
  H        11.6947697416       10.5504422716        2.6633301712
  H        15.3924363114       11.1696897628        4.7713127528
  H        14.3519628686       13.0724002076        6.0164486609
  H        13.3763321624       11.6312062073        1.2014218305
  H        50.3228303399       22.7482185512        3.9865532584
  H        49.3196808480       24.6226626700        2.6805368876
  H        45.6426413572       24.1617934479        4.8643056279
  H        46.6636158204       22.2907919108        6.1725546394
  H        47.6296643319       23.5758067237        1.2463030617
  H        14.8728662183        8.5886173962        4.6085909979
  H        50.2868538039       22.7017384372       12.0612020014
  H        49.2690237243       24.5746989308       13.3612138572
  H        45.6113009651       24.1104215626       11.1450003364
  H        46.6534173021       22.2550312081        9.8306727511
  H        47.6075913764       23.5516960293       14.7969699050
  H        40.6507375894       17.1661468366       11.4139424612
  H        48.6873869017       14.0948556206        7.8001055919
  H        10.6813698043       12.4663032759       12.0928857798
  H        11.6897689845       10.5244131095       13.2965866671
  H        15.3942786497       11.1600686313       11.2065596243
  H        14.3657231627       13.0883977473        9.9913261363
  H        13.3760177408       11.6222489088       14.7532128149
  H        47.9302995650       14.2186202038        9.7108436876
  H        47.7802244530       14.3742523096        6.4957226945
  H        49.0847707378       18.5525190965       10.8674906062
  H        10.4165490963       14.1342738542        7.9988146461
  H        24.4820078847        3.0321740583        3.9129089857
  H        25.6181521142        4.8926206141        2.6852861656
  H        23.2395826330        7.7559476890        4.8398122321
  H        22.1222671601        5.8860613824        6.0697338790
  H        23.8164304277        5.7905733361        1.2530041807
  H        36.3798181735       32.1879947978        3.9642668377
  H        35.2577121091       30.3628614578        2.6824364656
  H        37.5198045010       27.4400771037        4.8831764518
  H        38.6220505406       29.2781243548        6.1734269585
  H        37.0315679884       29.4481085732        1.2681292082
  H        25.7224686484        8.6166534020        4.6469963058
  H        36.4543367346       32.2397285946       12.1097289479
  H        35.3430431339       30.4197623753       13.4033982625
  H        37.5298743237       27.4867825984       11.1396794678
  H        38.6158515592       29.3185963239        9.8336309239
  H        37.0497926950       29.4658587722       14.8194658361
  H        46.1100399908       26.5879195045       11.3856207842
  H        44.6683784164       35.1162773330        7.8139501028
  H        24.4488081529        3.0436463149       12.0787974356
  H        25.5850881902        4.8833556583       13.3232620080
  H        23.1752409445        7.7707234233       11.2374795288
  H        22.0513300877        5.9194371325        9.9918354026
  H        23.8048870234        5.7917373420       14.8047585174
  H        44.9540237538       34.3906207362        9.6953766010
  H        44.9018498777       34.2069079223        6.4906326550
  H        40.6663752729       33.2095948315       10.8533797813
  H        23.1504863239        1.9583809946        8.0047947078
  H        25.8424403552       19.6184972345        3.8692816556
  H        23.6628211091       19.6801484048        2.6615030411
  H        22.3501704317       16.2286558824        4.8666907082
  H        24.5322474795       16.1869356367        6.0797347196
  H        23.7263688886       17.6432592054        1.2456718927
  H        35.1563946246       15.4092608728        3.9834936924
  H        37.2845324842       15.3596925501        2.6723547853
  H        38.7045457753       18.7708474862        4.8744338133
  H        36.5693217877       18.8059117560        6.1805472074
  H        37.2343315493       17.3711443267        1.2482801352
  H        20.3635609913       17.9824934825        4.6708137433
  H        35.2059454320       15.4827488556       12.0483614794
  H        37.3290110126       15.4396705001       13.3599626789
  H        38.7338602720       18.8727780922       11.1815604402
  H        36.6052838018       18.8962904212        9.8638273894
  H        37.2481628338       17.4147105722       14.7949464856
  H        35.1502251898       26.6794173995       11.3916864159
  H        28.5012935942       21.0755399841        7.8925665317
  H        25.7685666924       19.6164750748       12.1814417963
  H        23.5837648190       19.6732886404       13.3939383774
  H        22.2935071068       16.1955283477       11.2173059111
  H        24.4777785418       16.1620344660        9.9983975043
  H        23.7027092955       17.6347464745       14.7972852941
  H        28.9960267337       21.7247631639        9.7459449998
  H        29.1876031672       21.7204336146        6.5703005491
  H        32.1351506541       18.5953052350       10.9712412981
  H        27.4037692767       19.0701044493        8.0822412263
  H        14.8490325905       19.6504941259       12.1393437781
  H        17.0110251731       19.6999749037       13.3821422200
  H        18.3061740946       16.1932218098       11.2554879233
  H        16.1403803165       16.1595653329       10.0116951304
  H        16.9234476532       17.7118033278       14.8508173052
  H        46.0740884187       15.4300856563       12.0478768494
  H        43.9469692197       15.3857193728       13.3544683523
  H        42.5749219955       18.8577693825       11.2172325694
  H        44.7003103964       18.8745051067        9.8976981871
  H        44.0311611434       17.3227389194       14.8279632608
  H        20.2929662867       17.9292561866       11.4226966794
  H        46.0566992583       15.3803753333        4.0385783568
  H        43.9287345135       15.3042395342        2.7375277027
  H        42.5150889841       18.7658196229        4.8633934620
  H        44.6502128362       18.8283556127        6.1651326838
  H        44.0184357281       17.2824454449        1.2776971015
  H        46.1997590371       26.6829769630        4.6233722451
  H        52.7413367680       21.0626989560        8.1947104351
  H        14.8814973909       19.6791121751        3.9003170355
  H        17.0827139534       19.7563610277        2.7227498289
  H        18.3402087861       16.2373284405        4.8510775194
  H        16.1413488645       16.1841839246        6.0389882895
  H        16.9454778857       17.7276757355        1.2976955396
  H        52.3228123009       21.6733880635        6.2941364397
  H        52.0134100263       21.7021858234        9.4956581145
  H        49.0682512297       18.6077289227        5.2037015394
  H        13.2479400369       19.0160601448        7.9774679581
  H        29.9272359278       12.5245673912       12.2944055602
  H        28.8702997011       10.5813684430       13.4507939170
  H        25.2717472340       11.1825654435       11.1730143221
  H        26.3506153364       13.1095267624       10.0025614828
  H        27.1333377593       11.6987637717       14.7963335953
  H        31.0042882190       22.7684056617       12.0135193358
  H        32.0148609181       24.6453192180       13.3145317389
  H        35.6990690240       24.1424652627       11.1526166277
  H        34.6669051469       22.2741599431        9.8454375433
  H        33.6864090493       23.5752918744       14.7540728623
  H        25.7281260455        8.6015249542       11.4007031880
  H        30.9266176241       22.7516073782        3.9683971506
  H        31.9588009279       24.6011922114        2.6508979318
  H        35.6223317138       24.1085292547        4.8501176866
  H        34.5752972697       22.2556362351        6.1636341754
  H        33.6594496292       23.5631210031        1.2072238682
  H        40.6044522663       17.0320280873        4.6517071469
  H        32.5132556460       14.1540182327        8.2459455190
  H        29.8738910644       12.5457414559        3.8895608119
  H        28.8436132964       10.6369821683        2.6549429145
  H        25.1912511527       11.1926494819        4.8570891055
  H        26.2424507221       13.0886894444        6.1013663184
  H        27.1203929451       11.7113153351        1.2442653215
  H        33.2899670773       14.1873874934        6.4338007845
  H        33.4092054032       14.3750138995        9.6093910591
  H        32.1183107491       18.5435066985        5.1727350077
  H        30.2230254259       14.1949045608        8.0767574837
  H        16.1181127583        2.9635747963       12.1293936989
  H        14.9530828560        4.8207381453       13.3221480395
  H        17.3669984660        7.6861064380       11.2105657247
  H        18.5155753051        5.8185883443       10.0107782224
  H        16.7537191014        5.7397045127       14.7714855360
  H        44.8278551339       32.1404496092       11.9774329628
  H        45.9372766283       30.3416415785       13.3068163180
  H        43.6835389037       27.3782263042       11.1518530613
  H        42.6006727967       29.1901127906        9.8092693350
  H        44.2305507222       29.4367979545       14.7688804346
  H        14.8518125154        8.5467639866       11.3633408579
  H        44.8996125851       32.2342281927        3.9314472090
  H        46.0245185544       30.4132291881        2.6519341925
  H        43.7643314486       27.4841889111        4.8459515022
  H        42.6465049339       29.3179406728        6.1250571240
  H        44.2685887353       29.4705464029        1.2181736996
  H        35.0815643306       26.6219974591        4.6304570245
  H        36.6052513687       35.1341670451        8.1806192347
  H        16.1434888257        3.0131427053        3.9043826563
  H        14.9740243222        4.8565938347        2.6886593761
  H        17.3971179375        7.7473066633        4.7545394089
  H        18.5440661500        5.8934049084        5.9821193381
  H        16.7648785386        5.7556147680        1.2192182806
  H        36.2787592069       34.4825862279        6.2731052869
  H        36.3812254188       34.2091013054        9.4995367577
  H        40.5810382697       33.2033480486        5.1532737688
  H        17.4710114678        1.9478483683        7.9742517193
  H        29.0406744631       19.3505078505       12.4553907507
  H        29.6844654303       19.7018666673        3.5122564143
  H        30.5248512018       15.6732454496        3.8173550578
  H        30.9513698440       15.5036017754       12.3589184779
  H        27.7884971490       17.7906128244       14.5072065144
  H        29.2259654957       15.6101641004       14.7861124674
  H        31.2403057849       19.8380826854        1.0346622831
  H        32.5087928012       16.2601115292        1.6112472850
  H        28.0928859863       17.5687284077        3.1110251914
  H        33.6539476762       16.7463673762       14.3453423674
  H        18.8537839210        0.8692331177       12.3352848183
  H        40.5277510330       35.2288890838        3.9519512231
  H        42.3252575903       34.4202350685        3.5898391308
  H        22.0877915897        0.6921226444       12.3517862603
  H        11.5970027279       18.7127837500       12.3826053044
  H        52.2650591828       18.4313304276        3.6771664074
  H        49.2549394220       16.4770865868        3.5845835458
  H        10.1499710926       15.7981762312       12.2930970870
  H        50.8503062039       17.6924669530        3.9541284074
  H        10.0462189662       17.3944844207       12.0519597262
  H        20.2151080776        0.0024362119       12.0419614328
  H        39.1835154661       36.1241586101        3.6862997056
 Ni        30.9075506585       17.8324799418        2.6668730251
 Ni        31.2374294352       16.7207340537       -0.4972959421
 Ni        29.6785918421       18.6016243958       -0.2497392162
 Ni        30.0569013264       17.4564893323       13.3204507584
  O        10.6500439926       14.3650829927        5.4858520518
  O        12.6132383764       14.6575392942        6.5839261213
  O        49.1480451561       16.8458732323        7.9897497309
  O        50.3503116075       20.9358109259        5.6479901085
  O        48.3485745507       20.5933117443        6.6658446847
  O        11.0520357876       17.0537437861        6.5008084374
  O        50.3210778919       20.8816447942       10.4068482461
  O        48.3467641910       20.5867261232        9.3271225343
  O        49.5442667636       18.2483825559       10.0681540001
  O        12.3592876303       18.6246427628        7.9997233704
  O        48.6933227757       14.1484449997        6.7513724521
  O         8.2099798650       14.2104207156        9.3225587063
  O        10.7354029372       14.5067459132       10.6643066293
  O        12.5718565746       14.5828534669        9.3284783743
  O        22.8448236817        2.0437522317        5.4871696592
  O        21.6056038796        3.5924257552        6.5896623739
  O        42.0584122141       34.1377213019        7.9790696190
  O        37.9818269284       33.1384070745        5.5725909439
  O        39.2182499183       31.5763531798        6.6667779110
  O        20.3086167346        1.0399881928        6.5022979882
  O        38.0246902100       33.1858092766       10.4151954817
  O        39.2194016904       31.5839052605        9.3262233508
  O        40.6523976127       33.7696258006       10.0603211280
  O        18.2555063579        1.3764117392        7.9968643732
  O        44.6222114291       35.1006024129        6.7587846782
  O        24.2054202568        0.0000420277        9.3207926990
  O        22.7532828446        2.0583674183       10.5841959028
  O        21.6250558910        3.5966731816        9.3437524558
  O        27.5454374551       18.6825019192        5.4155423318
  O        26.7677709369       16.9355037764        6.6539831168
  O        30.6658555487       19.3993891644        8.0479264819
  O        33.5810951520       16.2680475356        5.6575383189
  O        34.2717719608       18.1812529504        6.6696152321
  O        29.5770827073       17.0667300228        6.5784145073
  O        33.6255123539       16.3414177356       10.4078698888
  O        34.3156132775       18.2331558525        9.3391893849
  O        31.7043317606       18.3125672731       10.1489300909
  O        30.3255508113       15.1609447305        8.0787905488
  O        28.5524796805       21.0293781690        6.8351793856
  O        28.5149304521       20.9530362111        9.4023157985
  O        27.4611409557       18.6795935125       10.6589438932
  O        26.6957642764       16.9300421133        9.4127403467
  O        13.1489650206       18.6929367386       10.5874638009
  O        13.9199038500       16.9164539002        9.4054629127
  O        50.5965133291       19.3502464000        8.0203907312
  O        47.6832168415       16.3269687656       10.4170520778
  O        46.9526399476       18.1763033198        9.3237087782
  O        11.0702521570       17.0152901589        9.4895786154
  O        47.6775291346       16.3352497986        5.6536865891
  O        46.9257700623       18.2355396804        6.6635116827
  O        49.5688437319       18.3177193098        5.9822637242
  O        10.3188053174       15.1000840325        7.9971219788
  O        52.6707735120       21.0278757415        9.2418130342
  O        12.1468469065       20.8912096057        6.6732861759
  O        13.1082199628       18.6137023956        5.3256187638
  O        13.9576221923       16.9873618309        6.6651116702
  O        29.9674347438       14.5095880071       10.7427092677
  O        28.0835119790       14.6576771945        9.4866097101
  O        32.1385298392       16.8575720156        8.0706111000
  O        30.9684342739       20.9525166523       10.4058386709
  O        32.9493196990       20.5989342118        9.3340184121
  O        29.5756943696       17.0805309553        9.5777913906
  O        30.8732844621       20.9450719714        5.6588602206
  O        32.8773555534       20.5885816719        6.6628643765
  O        31.6854265779       18.2520752223        5.9915771100
  O        28.2917758995       18.6771717150        8.0680289220
  O        32.4902543839       14.2147297062        9.3275214049
  O        32.4003146019       14.2143156913        6.8233901495
  O        29.8743357259       14.5049860303        5.4144334431
  O        28.0421054892       14.5888548476        6.7517183407
  O        17.8892771196        1.9667204991       10.6628009800
  O        18.9563061953        3.5272086332        9.4079863012
  O        39.1686561806       34.1389279910        7.9972641586
  O        43.2802519850       33.0590130514       10.3317421121
  O        42.0345834192       31.5064431402        9.2416669305
  O        20.3178981764        1.0370530185        9.4800416204
  O        43.2760958633       33.1826799644        5.5749005572
  O        42.0053045478       31.5841413666        6.5829660282
  O        40.5790728756       33.7751716622        5.9359987705
  O        22.3675060146        1.3849205091        7.9980291474
  O        36.6728163396       35.0998269581        9.2332938245
  O        16.4456238681        0.0643723106        6.6683400565
  O        17.9365141793        2.0433697030        5.3264211643
  O        18.9191107289        3.5931339100        6.6659482397
  O        29.9547462087       18.9015641981        3.9982571538
  O        29.8216845885       18.9605977745       12.0152142859
  O        31.1872475772       16.3418045699        4.0764448896
  O        31.4119890344       16.3247693007       12.0809801751
  O        31.9813810764       16.9990062935        1.2600603684
  O        27.9237243596       16.9999478116        2.3343261256
  O        30.0734680622       15.7542044449       14.3298408893
  O        32.9101082484       16.1222177965       14.3136963570
  O        30.4874011289       19.2635658834        1.2534719806
  O        28.5402538663       18.3831141806       14.3278594196
  O        39.4566116733       35.2435315696        4.0019500045
  O        19.1416321875        0.0047391378       11.9905389568
  O        41.9696220608       35.1730033494        4.0872195382
  O        21.6913603940       -0.0692651807       11.8960403450
  O        51.3651945345       18.6142947078        4.0053649972
  O        10.7512406339       18.7470964399       11.9049534631
  O        50.0794016226       16.4127515252        4.0917231094
  O         9.5243271375       16.4830818979       11.9911969400
 Zr         9.2979958516       16.0525317088        6.1825571863
 Zr        49.8374714402       16.0066241525        9.7462624218
 Zr        22.0735323886        0.0308366624        6.1888636307
 Zr        42.4612378188       35.1543458800        9.8012460570
 Zr        29.6200424562       19.0727654047        6.2648413871
 Zr        29.5906256180       19.1830056478        9.8653023825
 Zr        11.0390440469       19.0516647950        9.8279080545
 Zr        11.0448924206       19.1545635459        6.2507652563
 Zr        31.3721015484       16.1176622431        9.8658678758
 Zr        31.3923291597       16.0120436079        6.2451386663
 Zr        18.6015461369       -0.0005259245        9.7632897594
 Zr        18.5068532065       -0.0067549128        6.2140076931
 Zr        12.3035778118       16.3236276006        7.9902970767
 Zr        48.6177730167       18.8332492807        8.0098041560
 Zr        20.3159625389        2.4746910709        7.9908228641
 Zr        40.6441872894       32.6880271715        7.9783009056
 Zr        28.3484545306       16.3471521558        8.0859962049
 Zr        32.6362173967       18.8355034945        8.0331783960
  H        32.5226299072       16.2057929618       13.3787527093
  H        28.2170569035       17.5448878657        1.5785209956
