     574
 i =      198, E =     -4778.8510150456
  C        11.8587064175       14.0536899683        5.7415221563
  C        12.4564446098       12.8907111942        5.0231034329
  C        11.7045858121       12.1713430691        4.0819524031
  C        12.2809871856       11.1091123982        3.3896238366
  C        13.6217408808       10.7397741318        3.6169491063
  C        14.3551546570       11.4438652668        4.5898283413
  C        13.7822049626       12.5088650632        5.2812938542
  C        14.2612540096        9.6490335275        2.8436014638
  C        14.2564456547        9.6568061468        1.4218954890
  C        13.7430856473       10.7588584614        0.6680125420
  C        49.1268632011       21.2333141861        5.8797386686
  C        48.5500661891       22.4013446930        5.1524294252
  C        49.3007245439       23.0697056859        4.1726727484
  C        48.7339310678       24.1089517328        3.4394738143
  C        47.4029300958       24.5095550599        3.6670305297
  C        46.6712253169       23.8594927153        4.6791864836
  C        47.2335416028       22.8144335008        5.4084705883
  C        46.7727941354       25.5873732829        2.8697805070
  C        46.7619492532       25.5579230110        1.4480200533
  C        47.2624704462       24.4430562537        0.7045729342
  C        14.8603766264        8.5704629602        0.7086274712
  C        14.8921599394        8.5971646990        3.5202385473
  C        49.1134185076       21.2033123805       10.1452006175
  C        48.5281098788       22.3648429761       10.8726518445
  C        49.2678030952       23.0262078454       11.8647295005
  C        48.6916599420       24.0608895660       12.5962215274
  C        47.3609732825       24.4570766818       12.3587082552
  C        46.6399944853       23.8114157446       11.3360925919
  C        47.2133670498       22.7753288848       10.6043748629
  C        46.7226380457       25.5322007696       13.1496876394
  C        46.7343495824       25.5287194220       14.5713956362
  C        47.2502820097       24.4297522001       15.3278098923
  C        40.6322309055       17.1069242171       15.3117736229
  C        40.6456547001       17.2694381881       12.4804102511
  C        11.8829122124       14.0866846112       10.2854229814
  C        12.4723597816       12.9107918055       10.9897793395
  C        11.7146447658       12.1772525561       11.9154175850
  C        12.2812016478       11.0947727131       12.5838679615
  C        13.6201730409       10.7214052257       12.3524656181
  C        14.3584175773       11.4373701839       11.3921932403
  C        13.7929943034       12.5185627474       10.7194916271
  C        14.2537126390        9.6245542590       13.1228380034
  C        14.2524602868        9.6444210364       14.5446832115
  C        13.7424711693       10.7533149271       15.2917583513
  C        22.5101846199        3.2456104110        5.7496503745
  C        23.2192413299        4.3509140658        5.0432012030
  C        24.2163492105        4.0709184416        4.0969077537
  C        24.8410687629        5.1098115590        3.4113101276
  C        24.4847050076        6.4520933407        3.6506043835
  C        23.5136983617        6.7235511438        4.6320893302
  C        22.8848283047        5.6865312582        5.3166383218
  C        25.0940997020        7.5586612633        2.8764663337
  C        25.0812641797        7.5494806324        1.4543049741
  C        24.3876963496        6.5488932640        0.7019797108
  C        38.3037319679       31.9304106048        5.8487146069
  C        37.5759523047       30.8406468057        5.1373910316
  C        36.6163670299       31.1443374340        4.1597822543
  C        36.0007689645       30.1238669740        3.4404087685
  C        36.3302956708       28.7751784231        3.6778432876
  C        37.2609221172       28.4787965954        4.6912850211
  C        37.8806023798       29.4980471633        5.4093500864
  C        35.7276117403       27.6834779477        2.8811923233
  C        35.7566753663       27.6984712529        1.4599420338
  C        36.4632511428       28.6999408857        0.7221558680
  C        25.7110319589        8.6187312590        0.7388659314
  C        25.6843255410        8.6353946065        3.5512262663
  C        38.3288771961       31.9626217014       10.1555325659
  C        37.6067561754       30.8889559973       10.8966502647
  C        36.6771209974       31.1974169859       11.9013636941
  C        36.0668386357       30.1785524044       12.6301796812
  C        36.3723334478       28.8263290966       12.3773949035
  C        37.2795326178       28.5277063786       11.3425482377
  C        37.8918892556       29.5431425934       10.6150506517
  C        35.7645617980       27.7272923601       13.1615731776
  C        35.7757010152       27.7208310041       14.5834231531
  C        36.4718379270       28.7109713582       15.3454772303
  C        46.1361035323       26.6212709145       15.2814886419
  C        46.0886091457       26.5804793212       12.4736013648
  C        22.4677030937        3.2572600246       10.2562128203
  C        23.1761570894        4.3643684938       10.9707465217
  C        24.1841290424        4.0745060547       11.9046541277
  C        24.8247943994        5.1018210849       12.5941849078
  C        24.4790094664        6.4503877049       12.3739497458
  C        23.4953564415        6.7334688594       11.4071762058
  C        22.8502296869        5.7063984428       10.7176575482
  C        25.1148944137        7.5459345587       13.1510311369
  C        25.0926415292        7.5422885932       14.5741723902
  C        24.3905271647        6.5470693882       15.3250459472
  C        26.6411677929       17.8297704134        5.7518580854
  C        25.3295129833       17.8835190379        5.0387646806
  C        25.0712526511       18.8763918693        4.0806746653
  C        23.8528332039       18.9043573993        3.4055718034
  C        22.8567249899       17.9403226665        3.6625667095
  C        23.1111321738       16.9706829386        4.6511585921
  C        24.3301841551       16.9394185653        5.3267465936
  C        21.5819711365       17.9291276949        2.9002685723
  C        21.5820336576       17.9078288582        1.4773314941
  C        22.7872071866       17.7763198244        0.7171195376
  C        34.4405307893       17.1842194154        5.8917722901
  C        35.7395166672       17.1108546596        5.1713201488
  C        35.9226571733       16.1894747125        4.1272338156
  C        37.1026821375       16.1874020219        3.3930499803
  C        38.1451146334       17.0913661628        3.6962642021
  C        37.9689463839       17.9756519676        4.7828518512
  C        36.7788022608       17.9958772411        5.4998073376
  C        39.3883457665       17.1262481245        2.9187775162
  C        39.3795933832       17.1284982318        1.4650760113
  C        38.1966011270       17.2959146844        0.7302816135
  C        20.3353878970       17.9327000369        0.7686014103
  C        20.3567166225       17.9349434858        3.5822769124
  C        34.4839067256       17.2522704361       10.1437036579
  C        35.7805955733       17.1887079817       10.8650553340
  C        35.9614221112       16.2703893498       11.9140417550
  C        37.1375477689       16.2724662040       12.6526611425
  C        38.1799253289       17.1794881270       12.3535095529
  C        38.0060976745       18.0603015615       11.2626895389
  C        36.8200482406       18.0750709431       10.5391643857
  C        39.4151500990       17.2149652682       13.1399392519
  C        39.3931022739       17.1759676209       14.5937240358
  C        38.2043634758       17.3207665314       15.3242355597
  C        35.1437901698       26.6429194240       15.2879211325
  C        35.1737126111       26.6568682690       12.4789561483
  C        26.5772279377       17.8278921325       10.3271759832
  C        25.2625112550       17.8752518199       11.0331097104
  C        25.0013277876       18.8763155143       11.9812706387
  C        23.7834179519       18.9022399609       12.6551138147
  C        22.7963983846       17.9278223350       12.4041851454
  C        23.0520477899       16.9524093671       11.4233459541
  C        24.2708443112       16.9237460423       10.7482245638
  C        21.5324021873       17.9099936233       13.1768479624
  C        21.5564487426       17.8978660141       14.5984935706
  C        22.7739724874       17.7728566314       15.3405429769
  C        14.0476582434       17.8293900890       10.2888198863
  C        15.3528433840       17.8883095700       11.0138411489
  C        15.6087984428       18.8923301159       11.9609382073
  C        16.8179801496       18.9154162532       12.6537415329
  C        17.8063389020       17.9372561871       12.4222064242
  C        17.5551002963       16.9575126950       11.4428442572
  C        16.3454053041       16.9299406046       10.7514699356
  C        19.0757392156       17.9213471773       13.1917576521
  C        19.0748387762       17.9185978264       14.6145608223
  C        17.8678180903       17.8226662886       15.3761463009
  C        46.8048397684       17.2162029797       10.1528418249
  C        45.5114610530       17.1537147525       10.8830430297
  C        45.3202321601       16.2251722638       11.9193517252
  C        44.1412367191       16.2284827139       12.6550434307
  C        43.1099323488       17.1508486228       12.3676791656
  C        43.2954645705       18.0455486258       11.2905570174
  C        44.4816292793       18.0553046105       10.5675064506
  C        41.8696279527       17.1936940433       13.1487547117
  C        41.8786539086       17.1478507271       14.6029168928
  C        43.0643103824       17.2616341034       15.3431675163
  C        20.3217138490       17.9260555028       15.3232528004
  C        20.3003043656       17.9011310782       12.5099433163
  C        46.7859119001       17.2263464560        5.8938832764
  C        45.4835667300       17.1092989430        5.1896869216
  C        45.3007594568       16.1701098723        4.1610876553
  C        44.1197020321       16.1532684442        3.4287824401
  C        43.0757508188       17.0601169259        3.7185256706
  C        43.2458968261       17.9526371979        4.7998091341
  C        44.4360319740       17.9879460799        5.5136274526
  C        41.8419072479       17.1026519350        2.9292532189
  C        41.8653823791       17.0999004491        1.4755714473
  C        43.0579221907       17.2375685875        0.7496230234
  C        46.1537764725       26.6377049639        0.7262540392
  C        46.1626966991       26.6563849962        3.5358920899
  C        14.0462632443       17.8320430097        5.7086013689
  C        15.3681973236       17.9068451063        5.0185973068
  C        15.6433706738       18.9234378504        4.0917017930
  C        16.8731506395       18.9612519903        3.4379259124
  C        17.8561168959       17.9814214755        3.6843833506
  C        17.5876948969       16.9937393818        4.6496664405
  C        16.3601002255       16.9556145646        5.3072202837
  C        19.1240016158       17.9561592850        2.9154028378
  C        19.1001849483       17.9349044152        1.4935946254
  C        17.8802435667       17.8299479415        0.7524263945
  C        28.8322042289       14.1210348757       10.4011646621
  C        28.2426603442       12.9371315465       11.0904649562
  C        28.9615083303       12.2127946747       12.0532419560
  C        28.3702011613       11.1272503803       12.6966367088
  C        27.0456523974       10.7413345341       12.4040982283
  C        26.3510831201       11.4459080963       11.4040193967
  C        26.9392248740       12.5297541587       10.7586601570
  C        26.3741881753        9.6571206504       13.1590840384
  C        26.3412645230        9.6875690469       14.5801023090
  C        26.8288296519       10.8050624358       15.3294536592
  C        32.1818508132       21.2395238612       10.1407038389
  C        32.7743663700       22.4073479914       10.8579904323
  C        32.0237517130       23.0875635093       11.8294680160
  C        32.5936697449       24.1264056987       12.5590544548
  C        33.9297044423       24.5128619361       12.3379773555
  C        34.6626582912       23.8517703276       11.3343552409
  C        34.0951530007       22.8076078362       10.6064937227
  C        34.5580167192       25.5879916535       13.1390374259
  C        34.5489563116       25.5604110877       14.5606684097
  C        34.0356902098       24.4478924039       15.2997010104
  C        25.7228208383        8.6107521897       15.2937616231
  C        25.7431604128        8.6047772078       12.4806419390
  C        32.1045332634       21.2319699335        5.8814267636
  C        32.6941373524       22.3843147950        5.1394260821
  C        31.9554887007       23.0543503611        4.1517014200
  C        32.5371146077       24.0818168376        3.4127298995
  C        33.8708781578       24.4709576232        3.6452077325
  C        34.5921841014       23.8159006782        4.6616844685
  C        34.0157736078       22.7816959949        5.3945349707
  C        34.5113069893       25.5510339399        2.8596609038
  C        34.5236710949       25.5422451260        1.4378838384
  C        34.0223168110       24.4398910042        0.6765757388
  C        40.6252732909       17.0829297454        0.7554503080
  C        40.6120353012       17.1582928645        3.5897367872
  C        28.7181923543       14.0952040085        5.7867529233
  C        28.1115331344       12.9440685892        5.0567638088
  C        28.8508854263       12.2384113664        4.0950224931
  C        28.2733625982       11.1746304944        3.4064005449
  C        26.9395260942       10.7906095361        3.6517473658
  C        26.2178274907       11.4825111556        4.6425885784
  C        26.7944360445       12.5455738421        5.3350647788
  C        26.3015294730        9.6978265153        2.8782054478
  C        26.3047475876        9.7088588516        1.4561105955
  C        26.8089880608       10.8167741761        0.7051670017
  C        18.1354635035        3.1812245853       10.3171583795
  C        17.4060702314        4.2783144995       11.0155393378
  C        16.3906838661        3.9998759445       11.9434481805
  C        15.7429429782        5.0397993431       12.6069566108
  C        16.0944564867        6.3836009954       12.3669788085
  C        17.0833988386        6.6531735180       11.4027567908
  C        17.7325597736        5.6159011076       10.7376908905
  C        15.4701542107        7.4912258575       13.1300871927
  C        15.4854807662        7.4904389746       14.5517977079
  C        16.1872052052        6.4969321938       15.3049588758
  C        42.9460634344       31.8596137056       10.0729312022
  C        43.6465790714       30.7720463412       10.8167328016
  C        44.5915693248       31.0934758540       11.8033080992
  C        45.1973712487       30.0879804340       12.5509379205
  C        44.8716746841       28.7348018025       12.3355852484
  C        43.9465578065       28.4203835201       11.3217236896
  C        43.3376305172       29.4254584342       10.5737012615
  C        45.4892507011       27.6555724971       13.1388231846
  C        45.4932666940       27.6812752769       14.5605134241
  C        44.8059447491       28.6891748464       15.3071262287
  C        14.8565159338        8.5629067704       15.2641948144
  C        14.8749007612        8.5630430930       12.4515251252
  C        42.9466075176       31.9617382465        5.8089876029
  C        43.6919662207       30.8857164339        5.0956756086
  C        44.6558756380       31.1916964747        4.1226964721
  C        45.2773792285       30.1721446479        3.4049409496
  C        44.9543590694       28.8217251311        3.6431510098
  C        44.0217447808       28.5240282410        4.6547582508
  C        43.3934857102       29.5407416854        5.3669947560
  C        45.5633288276       27.7243765546        2.8578477490
  C        45.5336251277       27.7177582711        1.4365480526
  C        44.8271396690       28.7078212629        0.6835243693
  C        35.1326287129       26.6325686664        0.7328043071
  C        35.1242708736       26.6080679532        3.5426638590
  C        18.1487691787        3.2471383631        5.7066672764
  C        17.4303001513        4.3438980403        4.9974148540
  C        16.4152797833        4.0526497813        4.0735912075
  C        15.7670195981        5.0832840292        3.3982055710
  C        16.1215079118        6.4285617042        3.6210841003
  C        17.1126965135        6.7119095339        4.5785691519
  C        17.7603379589        5.6830020562        5.2583555565
  C        15.4909656269        7.5242117867        2.8486412782
  C        15.4967061843        7.5074281889        1.4275117465
  C        16.1935298292        6.5057964735        0.6807746292
  H        10.6722960955       12.4651850213        3.9053587770
  H        11.6945646761       10.5502742828        2.6634655009
  H        15.3923931537       11.1697537578        4.7711003605
  H        14.3517917036       13.0725712552        6.0162690760
  H        13.3759879230       11.6309113731        1.2013860577
  H        50.3238116717       22.7503299551        3.9888795424
  H        49.3208635718       24.6250309449        2.6827947583
  H        45.6412650356       24.1593212841        4.8612643640
  H        46.6619804850       22.2878292377        6.1692172506
  H        47.6315695422       23.5769934873        1.2463892174
  H        14.8726432622        8.5885805774        4.6085476091
  H        50.2881094618       22.7037492970       12.0589414500
  H        49.2704356039       24.5768517755       13.3590947558
  H        45.6103138610       24.1081422902       11.1477269677
  H        46.6521780836       22.2523058521        9.8336555026
  H        47.6096802648       23.5529285933       14.7968367096
  H        40.6498352160       17.2636629606       11.3921223353
  H        48.6863301230       14.0948100141        7.7996660729
  H        10.6810325707       12.4661064187       12.0923756512
  H        11.6892472904       10.5240991333       13.2962067650
  H        15.3940311281       11.1598645719       11.2067152744
  H        14.3654784548       13.0883076463        9.9913648269
  H        13.3755151639       11.6218478787       14.7530736146
  H        47.9302448795       14.2195742789        9.7113945759
  H        47.7807383314       14.3750592952        6.4937838007
  H        49.0827127406       18.5518112197       10.8665456162
  H        10.4155879449       14.1343059462        7.9986329634
  H        24.4808105742        3.0325423283        3.9097118950
  H        25.6156889311        4.8911441366        2.6794708072
  H        23.2296742789        7.7562709803        4.8235880347
  H        22.1142629460        5.8881474041        6.0567610313
  H        23.8212604084        5.7924664767        1.2374254071
  H        36.3779525505       32.1874858525        3.9660471822
  H        35.2559367992       30.3622492134        2.6843157380
  H        37.5229880138       27.4399065853        4.8806905437
  H        38.6248307253       29.2780652471        6.1710580182
  H        37.0299818997       29.4487451138        1.2678498987
  H        25.7097912905        8.6193641206        4.6393480672
  H        36.4539404112       32.2415873610       12.1085479807
  H        35.3405290850       30.4228462464       13.4022123595
  H        37.5271763420       27.4875917051       11.1411018792
  H        38.6151724961       29.3182725889        9.8350255974
  H        37.0462571708       29.4678584499       14.8191591649
  H        46.1101124745       26.5877590532       11.3855650526
  H        44.6683206368       35.1161908533        7.8139905146
  H        24.4559870238        3.0348728632       12.0729929774
  H        25.6080491032        4.8676170964       13.3120619179
  H        23.2154241658        7.7693338003       11.2263995683
  H        22.0750407847        5.9247915197        9.9866768821
  H        23.8257692394        5.7898045315       14.7890552039
  H        44.9538392435       34.3903371427        9.6951012944
  H        44.9016593267       34.2069428423        6.4904704491
  H        40.6665683853       33.2096469636       10.8533958585
  H        23.1508772630        1.9581851955        8.0039542893
  H        25.8368722041       19.6219497324        3.8795188130
  H        23.6583353327       19.6809779007        2.6690495897
  H        22.3547091487       16.2166709801        4.8591642756
  H        24.5361462442       16.1764313847        6.0737350911
  H        23.7276367507       17.6450242846        1.2451508599
  H        35.1189885255       15.4925028720        3.9003796944
  H        37.2408422256       15.4715739842        2.5859712606
  H        38.7615296723       18.6816221369        5.0215869727
  H        36.6201757032       18.7050657432        6.3088362666
  H        37.2588307689       17.4441442199        1.2574906797
  H        20.3634228327       17.9741694616        4.6701931381
  H        35.1610897399       15.5692164575       12.1406623193
  H        37.2743956850       15.5554076619       13.4587311627
  H        38.7971361319       18.7688369409       11.0263477010
  H        36.6642302126       18.7819546705        9.7274930113
  H        37.2721471199       17.4897226612       14.7939456932
  H        35.1462136552       26.6823990581       11.3912482195
  H        28.5002226409       21.0761395312        7.8957859726
  H        25.7649924877       19.6272272740       12.1711427478
  H        23.5809212548       19.6825486463       13.3855951688
  H        22.2986970219       16.1931806518       11.2233016171
  H        24.4832751585       16.1583527667       10.0056439522
  H        23.7043533987       17.6404020347       14.7964259146
  H        29.0042143016       21.7214076507        9.7416406934
  H        29.1854074925       21.7219046329        6.5717744151
  H        32.1457670810       18.5982893838       10.9743299560
  H        27.4044935061       19.0686487616        8.0925869941
  H        14.8494456573       19.6505016509       12.1390319484
  H        17.0117734681       19.7006253719       13.3813715082
  H        18.3071227383       16.1939962396       11.2544635244
  H        16.1408438876       16.1599561472       10.0113241150
  H        16.9248000002       17.7101673798       14.8491310432
  H        46.1163723876       15.5184543049       12.1416569635
  H        43.9963642960       15.5027577057       13.4518340958
  H        42.5138927905       18.7676624623       11.0642945142
  H        44.6457221541       18.7702810262        9.7647754869
  H        44.0063304832       17.4075699290       14.8230506548
  H        20.2944271668       17.9318310269       11.4218128010
  H        46.1040502970       15.4717751407        3.9377425514
  H        43.9845085905       15.4269972505        2.6306903530
  H        42.4507320590       18.6581227081        5.0309902605
  H        44.5918157767       18.7082544438        6.3130365347
  H        43.9952824227       17.3651965808        1.2826006419
  H        46.1995305518       26.6827897812        4.6233417638
  H        52.7410590655       21.0624280063        8.1945751129
  H        14.8835869492       19.6779979525        3.9001567650
  H        17.0849002480       19.7529723207        2.7224720310
  H        18.3373454497       16.2305031876        4.8482300410
  H        16.1383917271       16.1799929179        6.0362508269
  H        16.9464510811       17.7231569853        1.2962085394
  H        52.3217501186       21.6729856708        6.2945157733
  H        52.0123188131       21.7012808552        9.4953711689
  H        49.0655983227       18.6073050602        5.2052105942
  H        13.2477156670       19.0162441152        7.9773322872
  H        29.9804644001       12.5131201331       12.2870194778
  H        28.9307845206       10.5665906525       13.4414904269
  H        25.3280011453       11.1601055225       11.1684372040
  H        26.3970949082       13.0928823210       10.0032937982
  H        27.1929818959       11.6756575268       14.7924262831
  H        30.9973222579       22.7763280389       12.0077004435
  H        32.0066042534       24.6535635584       13.3079517323
  H        35.6965941960       24.1414368906       11.1581098565
  H        34.6666145258       22.2713903994        9.8522954913
  H        33.6757100296       23.5809534534       14.7531050097
  H        25.7844713168        8.5835887583       11.3929703056
  H        30.9268232450       22.7521229433        3.9697708398
  H        31.9580133462       24.6020803404        2.6528360667
  H        35.6244960563       24.1058158456        4.8465930711
  H        34.5784275823       22.2525173305        6.1601261061
  H        33.6521197765       23.5666150828        1.2060503231
  H        40.6068292758       17.1270132516        4.6776212430
  H        32.5145584817       14.1537121150        8.2485882374
  H        29.8807622290       12.5327886260        3.9065140215
  H        28.8547888985       10.6239158011        2.6701840377
  H        25.1857215636       11.1996354918        4.8392161633
  H        26.2329060123       13.0951807342        6.0868036918
  H        27.1553785754       11.6967381037        1.2394023008
  H        33.2896012890       14.1843666192        6.4315179464
  H        33.4128229430       14.3697447606        9.6084208221
  H        32.1261623692       18.5544956365        5.1884102628
  H        30.2279874490       14.1959385731        8.0809710684
  H        16.1188886237        2.9633558253       12.1301096985
  H        14.9537670555        4.8203924632       13.3229057664
  H        17.3654982527        7.6860854189       11.2093564154
  H        18.5143463800        5.8187103367       10.0096222730
  H        16.7539376858        5.7397124481       14.7714828475
  H        44.8273664395       32.1405998998       11.9778960208
  H        45.9368314742       30.3418417006       13.3072406393
  H        43.6846566195       27.3782103869       11.1510108451
  H        42.6016635911       29.1899856680        9.8084564812
  H        44.2305070315       29.4368744392       14.7688253074
  H        14.8511654051        8.5464113389       11.3633041519
  H        44.8989257276       32.2344058111        3.9307787504
  H        46.0237811994       30.4134512994        2.6512317425
  H        43.7656230933       27.4842164498        4.8470132345
  H        42.6477569110       29.3178453131        6.1261642707
  H        44.2684744000       29.4706428879        1.2180312610
  H        35.0845147675       26.6200793303        4.6302407228
  H        36.6052434128       35.1342556618        8.1805403385
  H        16.1442464618        3.0130880135        3.9037412155
  H        14.9748235547        4.8564839547        2.6879667237
  H        17.3960852357        7.7473835405        4.7556112567
  H        18.5430609371        5.8935440852        5.9832554173
  H        16.7652138012        5.7557054915        1.2191489254
  H        36.2788435352       34.4826547512        6.2730337569
  H        36.3812008981       34.2091385687        9.4994382032
  H        40.5813625137       33.2035563368        5.1532869810
  H        17.4713546688        1.9481252224        7.9743143542
  H        29.1281191768       19.3753901393       12.5216053352
  H        29.7489835075       19.7105324229        3.5741919125
  H        30.5556656200       15.6051266765        3.8379266143
  H        30.9434646897       15.5139710810       12.4038263304
  H        27.8515448842       17.9580148275       14.6130520667
  H        29.1634906010       15.7269341340       14.8424456729
  H        31.3536089030       19.7930632962        1.2208105826
  H        32.4974011675       16.2560003555        1.6822565913
  H        28.0350602281       17.5780532684        3.1155861759
  H        33.5930830168       16.8391598059       14.4258379307
  H        18.8530348720        0.8690915973       12.3350757108
  H        40.5277882567       35.2288126323        3.9518842941
  H        42.3253972227       34.4200383924        3.5900002138
  H        22.0875963396        0.6919272052       12.3521031697
  H        11.5974150522       18.7122837018       12.3818431197
  H        52.2651896476       18.4311701467        3.6777566968
  H        49.2541491677       16.4815996922        3.5872248947
  H        10.1511932538       15.7983873894       12.2916735688
  H        50.8504163432       17.6919813171        3.9547477143
  H        10.0460291206       17.3946295697       12.0517493581
  H        20.2141374227        0.0022205472       12.0421270925
  H        39.1835529569       36.1242231478        3.6863556594
 Ni        30.8705499834       17.8047849786        2.7504107674
 Ni        31.1997659394       16.7422384073       -0.4120436002
 Ni        29.7173855811       18.6277244803       -0.0014990736
 Ni        30.1377342592       17.5022147725       13.4031932355
  O        10.6500306149       14.3650500176        5.4856415871
  O        12.6132388882       14.6575078830        6.5838592951
  O        49.1480623844       16.8458414604        7.9897816727
  O        50.3502898223       20.9362300246        5.6480172044
  O        48.3485876453       20.5936352207        6.6658239706
  O        11.0517359981       17.0539788139        6.5007016581
  O        50.3212661994       20.8817905976       10.4068421870
  O        48.3468653191       20.5870005298        9.3271471668
  O        49.5443091311       18.2485249042       10.0681224087
  O        12.3592256398       18.6245783025        7.9997414698
  O        48.6932658467       14.1482930720        6.7511833267
  O         8.2098327969       14.2103211650        9.3226927945
  O        10.7353612011       14.5066797872       10.6643999194
  O        12.5718830158       14.5828110296        9.3285151045
  O        22.8449308273        2.0441979613        5.4868305877
  O        21.6060730359        3.5928733266        6.5892221948
  O        42.0584159945       34.1377735332        7.9791238878
  O        37.9818134549       33.1382808742        5.5725376870
  O        39.2182705707       31.5763066849        6.6668002364
  O        20.3087138553        1.0403335287        6.5024274389
  O        38.0246921391       33.1859303850       10.4151224694
  O        39.2193091590       31.5838454298        9.3262723657
  O        40.6523572776       33.7696729952       10.0603344899
  O        18.2557126502        1.3764875634        7.9968555433
  O        44.6221480403       35.1006459332        6.7587931759
  O        24.2054394968        0.0000168554        9.3207767009
  O        22.7536073011        2.0580354322       10.5844169869
  O        21.6262565250        3.5978042089        9.3457947967
  O        27.5433533319       18.6820115122        5.4172963198
  O        26.7688430153       16.9340287863        6.6563445755
  O        30.6669490561       19.4019030290        8.0669388640
  O        33.5809929513       16.2678097580        5.6589617579
  O        34.2705802072       18.1819466885        6.6724912267
  O        29.5777373524       17.0650959549        6.5797964846
  O        33.6225167309       16.3416075975       10.4093959235
  O        34.3143707590       18.2328381636        9.3375168534
  O        31.7095051533       18.3129240964       10.1557232534
  O        30.3276213061       15.1623099921        8.0807318152
  O        28.5516222472       21.0301785868        6.8383155759
  O        28.5167034043       20.9502767781        9.4054425333
  O        27.4654150343       18.6789045643       10.6612569460
  O        26.6972873676       16.9299870581        9.4138826481
  O        13.1492894781       18.6929248952       10.5875960537
  O        13.9201101847       16.9163719790        9.4054886091
  O        50.5963631399       19.3502786320        8.0203774152
  O        47.6843324125       16.3266686255       10.4175726877
  O        46.9538194968       18.1763103977        9.3219607616
  O        11.0701273301       17.0152845697        9.4897864793
  O        47.6799702724       16.3343430368        5.6532151636
  O        46.9280311086       18.2350135303        6.6654901987
  O        49.5688845743       18.3178256521        5.9822269222
  O        10.3187163650       15.1001855809        7.9970222318
  O        52.6707674710       21.0278954074        9.2418020874
  O        12.1468623702       20.8912039176        6.6732341269
  O        13.1085690318       18.6136482370        5.3254727227
  O        13.9576991418       16.9872192063        6.6651309975
  O        30.0132310959       14.5076404867       10.7366660672
  O        28.0992377239       14.6555808647        9.4987782821
  O        32.1389227620       16.8566329844        8.0768093054
  O        30.9668335982       20.9500442130       10.4093262286
  O        32.9480831145       20.6003725919        9.3359227387
  O        29.5809729919       17.0816404925        9.5814577206
  O        30.8735928928       20.9469012367        5.6613333888
  O        32.8773837112       20.5882515266        6.6638612425
  O        31.6861456008       18.2500240857        5.9981846879
  O        28.2928387116       18.6767286520        8.0736531067
  O        32.4921503480       14.2154012712        9.3284116202
  O        32.4012126050       14.2129430254        6.8242446840
  O        29.8726865149       14.5029689716        5.4161886001
  O        28.0415046758       14.5883476194        6.7535556179
  O        17.8893599647        1.9667071063       10.6627308852
  O        18.9564430241        3.5271981494        9.4079644998
  O        39.1686919226       34.1389166611        7.9972441906
  O        43.2802134973       33.0590847456       10.3317094520
  O        42.0345484197       31.5065120016        9.2416666079
  O        20.3180412357        1.0371693122        9.4799542932
  O        43.2760525315       33.1827594145        5.5749553787
  O        42.0052852981       31.5841966674        6.5829965699
  O        40.5790684401       33.7752666560        5.9360986344
  O        22.3675725727        1.3851520545        7.9980877344
  O        36.6728175034       35.0998564004        9.2332395030
  O        16.4456914339        0.0644052789        6.6683443672
  O        17.9365502984        2.0433671171        5.3264965065
  O        18.9192793244        3.5930889333        6.6660438255
  O        29.9521181238       18.8991804123        4.0754620985
  O        29.8584824914       18.9103011100       12.0685169044
  O        31.2222177779       16.2769502797        4.0784747338
  O        31.4205757713       16.3317170803       12.1484070561
  O        31.9795933775       17.0034814972        1.3348712687
  O        27.9221998266       16.9988347929        2.3363224784
  O        30.0298535024       15.8228332385       14.4088824894
  O        32.8666101897       16.1947346720       14.3944176699
  O        30.5308680420       19.3426145143        1.4799488826
  O        28.6765860719       18.4613349648       14.4952451872
  O        39.4566388704       35.2435800484        4.0019822995
  O        19.1408877733        0.0044831094       11.9905810864
  O        41.9695674297       35.1728015265        4.0872629056
  O        21.6912214846       -0.0692907234       11.8960572817
  O        51.3652088491       18.6143026825        4.0054356752
  O        10.7512659479       18.7471628653       11.9049551491
  O        50.0801871341       16.4128263644        4.0912476166
  O         9.5244966340       16.4830321060       11.9913824258
 Zr         9.2960234564       16.0526092243        6.1824916124
 Zr        49.8358916712       16.0067571623        9.7462071847
 Zr        22.0734866482        0.0307109020        6.1889811686
 Zr        42.4612869305       35.1542346049        9.8014965807
 Zr        29.6190143518       19.0753791873        6.2840487464
 Zr        29.5957798616       19.1775598788        9.8787846562
 Zr        11.0380190889       19.0515827465        9.8274323342
 Zr        11.0437474185       19.1545101015        6.2511752622
 Zr        31.3834803645       16.1213937950        9.8805223970
 Zr        31.3972868669       16.0075087917        6.2533442779
 Zr        18.6015560436       -0.0004395992        9.7630697225
 Zr        18.5069566384       -0.0065606131        6.2140517472
 Zr        12.3019283597       16.3238985641        7.9901039353
 Zr        48.6159505300       18.8328205732        8.0095325310
 Zr        20.3164033296        2.4750561757        7.9913131606
 Zr        40.6444874052       32.6878818897        7.9783113647
 Zr        28.3525568231       16.3459397446        8.0858374203
 Zr        32.6404055337       18.8341351525        8.0351597241
  H        32.4901340975       16.2442499972       13.4470347895
  H        28.2582088835       17.5376427619        1.5915648753
