     574
 i =      191, E =     -4778.9158653918
  C        11.8590046349       14.0534791551        5.7415803514
  C        12.4566401904       12.8907775151        5.0231194861
  C        11.7047299333       12.1712759587        4.0820563914
  C        12.2811628412       11.1090717397        3.3897718014
  C        13.6220015462       10.7398760181        3.6169497789
  C        14.3554575942       11.4441139870        4.5897035653
  C        13.7825218400       12.5091113040        5.2811532926
  C        14.2614631936        9.6491094350        2.8436101502
  C        14.2564129959        9.6568325134        1.4219149983
  C        13.7431879817       10.7589498835        0.6680459245
  C        49.1270492676       21.2331693927        5.8796310114
  C        48.5503032835       22.4012394023        5.1526156398
  C        49.3002408982       23.0683757132        4.1714382338
  C        48.7333278686       24.1075591636        3.4382608663
  C        47.4029000571       24.5094320025        3.6671073955
  C        46.6720944648       23.8608199748        4.6808967080
  C        47.2345280190       22.8158792887        5.4102129489
  C        46.7725855851       25.5870978532        2.8698440702
  C        46.7613825950       25.5573746623        1.4480820644
  C        47.2612630942       24.4422552322        0.7045911318
  C        14.8602837451        8.5704715085        0.7086347966
  C        14.8924325915        8.5972821785        3.5202572996
  C        49.1134345698       21.2033548526       10.1453188011
  C        48.5280972941       22.3648675012       10.8724662939
  C        49.2670740554       23.0250192315       11.8659246959
  C        48.6908307056       24.0596675767       12.5973504765
  C        47.3606597200       24.4569742243       12.3586750954
  C        46.6405578920       23.8127110717       11.3345149501
  C        47.2140492679       22.7767502311       10.6027542871
  C        46.7221948084       25.5319478172       13.1496919268
  C        46.7336227490       25.5281609631       14.5714090823
  C        47.2489770593       24.4289319134       15.3278291084
  C        40.6313565008       17.1205922689       15.3077098547
  C        40.6417990521       17.1895315561       12.4988797646
  C        11.8830957983       14.0865433631       10.2854958134
  C        12.4724574421       12.9109205164       10.9898919652
  C        11.7147791907       12.1774144922       11.9156404438
  C        12.2813690058       11.0949538504       12.5840315250
  C        13.6203186036       10.7214855171       12.3525145640
  C        14.3585156803       11.4374603488       11.3921967322
  C        13.7930996858       12.5186483723       10.7195152747
  C        14.2538470810        9.6246382943       13.1228748071
  C        14.2524193827        9.6444696551       14.5447143807
  C        13.7425451990       10.7534098442       15.2917938803
  C        22.5130440227        3.2456175469        5.7509636490
  C        23.2290832333        4.3485865653        5.0473290716
  C        24.2262588118        4.0632557965        4.1024800887
  C        24.8584791276        5.0983761695        3.4180618986
  C        24.5102210526        6.4428423148        3.6570266633
  C        23.5397194853        6.7196215103        4.6376944010
  C        22.9031209885        5.6861979500        5.3210579692
  C        25.1250497094        7.5460348597        2.8817575712
  C        25.1082937841        7.5374827245        1.4594485792
  C        24.4099781198        6.5390330272        0.7086011543
  C        38.3036734129       31.9308434719        5.8483758830
  C        37.5758369129       30.8419716945        5.1363063824
  C        36.6177813282       31.1469084910        4.1575387876
  C        36.0018350973       30.1273010783        3.4372993445
  C        36.3295138430       28.7782513722        3.6750289651
  C        37.2586375136       28.4807285528        4.6895586864
  C        37.8787620655       29.4990406932        5.4084469903
  C        35.7264522778       27.6866992038        2.8785951526
  C        35.7571842376       27.6997222829        1.4573904702
  C        36.4631810505       28.7009762434        0.7188063024
  C        25.7370607442        8.6064371819        0.7424039230
  C        25.7206305649        8.6208951711        3.5549027351
  C        38.3284855935       31.9622617195       10.1551962066
  C        37.6062916116       30.8877290651       10.8948534666
  C        36.6752748067       31.1942684212       11.8989053488
  C        36.0660526345       30.1740851139       12.6268197060
  C        36.3740149603       28.8223068849       12.3742182960
  C        37.2819519118       28.5256276396       11.3394389323
  C        37.8930769078       29.5422961667       10.6126498707
  C        35.7688041929       27.7222261406       13.1589979354
  C        35.7792059396       27.7176307578       14.5808789089
  C        36.4729608338       28.7100527018       15.3421196055
  C        46.1356070893       26.6207998478       15.2815503917
  C        46.0883802782       26.5804144077       12.4736540965
  C        22.4672260300        3.2573517990       10.2570068619
  C        23.1747790756        4.3640704148       10.9730839284
  C        24.1838074887        4.0734835204       11.9056593055
  C        24.8245273798        5.1000939139       12.5961438528
  C        24.4776364510        6.4489097705       12.3787444327
  C        23.4924755361        6.7327032986       11.4135714247
  C        22.8473951425        5.7063324988       10.7229388811
  C        25.1159570808        7.5434414449       13.1551668422
  C        25.1040077083        7.5356428502       14.5785164652
  C        24.4058792228        6.5392780147       15.3315845489
  C        26.6401895347       17.8280087866        5.7424980142
  C        25.3296907051       17.8854126286        5.0317170876
  C        25.0847503493       18.8596760602        4.0515703699
  C        23.8646703629       18.8907033871        3.3802550839
  C        22.8558905310       17.9461890713        3.6597468815
  C        23.0984633611       16.9949339935        4.6689979089
  C        24.3178864047       16.9621245898        5.3431223305
  C        21.5816960076       17.9324498132        2.8976864350
  C        21.5818223730       17.9021686922        1.4746770665
  C        22.7863743489       17.7598400042        0.7152549474
  C        34.4376971580       17.1859482803        5.8768488120
  C        35.7355035473       17.1122307107        5.1472947743
  C        35.9411510048       16.1366875620        4.1599367638
  C        37.1257298448       16.1173736541        3.4287977493
  C        38.1347085528       17.0698603793        3.6696589087
  C        37.9338921675       18.0213485689        4.6871134387
  C        36.7462387897       18.0481564456        5.4128469114
  C        39.3882433489       17.0816685301        2.8837472350
  C        39.3802690331       17.1134718879        1.4630340264
  C        38.1709826508       17.2516680579        0.7114955727
  C        20.3352609566       17.9285067831        0.7658560376
  C        20.3560069232       17.9431029337        3.5792736140
  C        34.4774137716       17.2599496310       10.1437132825
  C        35.7707722854       17.2059021149       10.8852037915
  C        35.9814930219       16.2239622888       11.8659327486
  C        37.1632344337       16.2080723194       12.6005820498
  C        38.1639895432       17.1733515085       12.3747746387
  C        37.9568605736       18.1344673258       11.3678061396
  C        36.7726853391       18.1551397729       10.6349752513
  C        39.4127762370       17.1786058513       13.1672812861
  C        39.3927269214       17.1650770766       14.5881390387
  C        38.1777738746       17.2770687968       15.3351003977
  C        35.1489038958       26.6395028126       15.2864228408
  C        35.1807394105       26.6494646915       12.4774975129
  C        26.5801855674       17.8288744254       10.3232925620
  C        25.2668720461       17.8680473361       11.0336509873
  C        25.0050081766       18.8650332999       11.9857160489
  C        23.7868491588       18.8878563565       12.6593436746
  C        22.7997110782       17.9146723755       12.4039575050
  C        23.0566258618       16.9422973995       11.4204510141
  C        24.2759453220       16.9165431889       10.7459705317
  C        21.5343430112       17.8965859844       13.1746677010
  C        21.5570044464       17.8839202203       14.5963195497
  C        22.7734262304       17.7528491084       15.3387696686
  C        14.0483431854       17.8293937102       10.2887349411
  C        15.3537546869       17.8878955686       11.0121533186
  C        15.6114756905       18.8913366870       11.9594848745
  C        16.8212756231       18.9128360313       12.6511826339
  C        17.8085495997       17.9336531391       12.4187006301
  C        17.5556584736       16.9549980933       11.4385971893
  C        16.3454934252       16.9289189276       10.7482347902
  C        19.0777053723       17.9149096362       13.1882928608
  C        19.0756940964       17.9135095993       14.6111431524
  C        17.8682160157       17.8216815145       15.3725502710
  C        46.8052114589       17.2183860326       10.1560565460
  C        45.5126236135       17.1579980639       10.8966315918
  C        45.2939893023       16.1699783935       11.8686264946
  C        44.1104066135       16.1563836260       12.6015127972
  C        43.1179987363       17.1320320830       12.3847358099
  C        43.3329522781       18.0989895419       11.3845964215
  C        44.5165244051       18.1154780114       10.6517858094
  C        41.8667071981       17.1505662152       13.1745921123
  C        41.8761404606       17.1325671180       14.5961419399
  C        43.0878271741       17.2095062881       15.3526040994
  C        20.3220776935       17.9179898591       15.3205101783
  C        20.3026312279       17.8911203972       12.5069453635
  C        46.7867118081       17.2305117623        5.8879844626
  C        45.4864477841       17.1193589858        5.1678078953
  C        45.2775665095       16.1176633174        4.2076445355
  C        44.0925145118       16.0818157929        3.4770693830
  C        43.0874724805       17.0445862995        3.6906471014
  C        43.2872395740       18.0170265586        4.6882660978
  C        44.4735596031       18.0592920546        5.4137961159
  C        41.8414788091       17.0589000007        2.8933958445
  C        41.8639119033       17.0835093335        1.4726027582
  C        43.0818863491       17.1863816244        0.7293712478
  C        46.1532926951       26.6372034117        0.7263174731
  C        46.1627190559       26.6562837142        3.5359523058
  C        14.0469533594       17.8326972913        5.7083199378
  C        15.3683323353       17.9090196253        5.0182593393
  C        15.6409258812       18.9242983223        4.0889437854
  C        16.8701454416       18.9635029651        3.4342080497
  C        17.8556094790       17.9863876320        3.6817907701
  C        17.5898771099       17.0004861197        4.6498435981
  C        16.3628305044       16.9608146750        5.3083231919
  C        19.1233613039       17.9612705875        2.9123717132
  C        19.0997621885       17.9359395121        1.4905173765
  C        17.8800938358       17.8316739807        0.7489194249
  C        28.8276784385       14.1187626416       10.3941063507
  C        28.2335695340       12.9393836692       11.0891149820
  C        28.9615071688       12.2003819199       12.0336982145
  C        28.3713148695       11.1152622562       12.6789024193
  C        27.0391212784       10.7431006617       12.4048332460
  C        26.3334945482       11.4634576181       11.4240678637
  C        26.9203898349       12.5479848907       10.7780264269
  C        26.3734018255        9.6554978007       13.1606329915
  C        26.3535351262        9.6801382802       14.5819079881
  C        26.8495346627       10.7942463486       15.3305906707
  C        32.1848798107       21.2380172858       10.1339146457
  C        32.7823831497       22.3990679593       10.8585389190
  C        32.0335344019       23.0773425929       11.8326272622
  C        32.6044310556       24.1152963820       12.5627390893
  C        33.9396228314       24.5032283117       12.3392645843
  C        34.6713781094       23.8429843828       11.3342645943
  C        34.1028390246       22.7995168226       10.6060951786
  C        34.5672378310       25.5799568124       13.1387416273
  C        34.5574419031       25.5543891235       14.5603793595
  C        34.0460880779       24.4418048774       15.3005546450
  C        25.7397771426        8.6016488248       15.2970520848
  C        25.7374598824        8.6056402709       12.4833842913
  C        32.1028895926       21.2329275531        5.8731330119
  C        32.6910118549       22.3880628179        5.1366428460
  C        31.9557517315       23.0519896851        4.1424029198
  C        32.5375260645       24.0806162355        3.4054981359
  C        33.8681871611       24.4758025388        3.6452467265
  C        34.5854358204       23.8274180828        4.6689181239
  C        34.0087953469       22.7927980027        5.4006487051
  C        34.5102570299       25.5541648955        2.8590273107
  C        34.5265826277       25.5419471943        1.4372343292
  C        34.0298057853       24.4365424082        0.6773832726
  C        40.6249029352       17.0945124350        0.7517746029
  C        40.6122028392       17.0734825682        3.5612084143
  C        28.7283115194       14.1000246908        5.7791537994
  C        28.1328483821       12.9419952929        5.0522430046
  C        28.8754207656       12.2411609922        4.0893713869
  C        28.3044060414       11.1714496257        3.4042313900
  C        26.9739203142       10.7776517393        3.6529781946
  C        26.2497416595       11.4649694783        4.6452957196
  C        26.8197408027       12.5330214328        5.3349762461
  C        26.3380570942        9.6826802567        2.8805763586
  C        26.3360743206        9.6948263835        1.4583186166
  C        26.8382714654       10.8031544318        0.7064329946
  C        18.1356727699        3.1811828770       10.3172343829
  C        17.4060961835        4.2783477538       11.0154863674
  C        16.3904154102        3.9999345082       11.9430624779
  C        15.7426344505        5.0398739632       12.6065359423
  C        16.0945425795        6.3836308949       12.3669505325
  C        17.0838924655        6.6532089992       11.4031579162
  C        17.7330587093        5.6159058449       10.7381099565
  C        15.4701607301        7.4912426268       13.1300765345
  C        15.4853513140        7.4904335003       14.5517979756
  C        16.1868615856        6.4967765366       15.3049559122
  C        42.9459570333       31.8596616251       10.0729186641
  C        43.6464551085       30.7719950134       10.8168512382
  C        44.5917176121       31.0933717132       11.8031543127
  C        45.1974784171       30.0878488712       12.5508238485
  C        44.8714415623       28.7347343726       12.3356974716
  C        43.9458904305       28.4203663049       11.3222370481
  C        43.3370228160       29.4254732462       10.5741910073
  C        45.4889487120       27.6554177666       13.1389286084
  C        45.4929132777       27.6809361951       14.5606274468
  C        44.8057327177       28.6889311993       15.3072378332
  C        14.8563661753        8.5628882136       15.2642049810
  C        14.8750614283        8.5631493698       12.4515289719
  C        42.9465048234       31.9617651892        5.8089915027
  C        43.6918458542       30.8856191759        5.0955557918
  C        44.6561938580       31.1915342671        4.1230227011
  C        45.2777989228       30.1719491661        3.4053492108
  C        44.9542304398       28.8216108480        3.6431390849
  C        44.0210383411       28.5239463241        4.6541919699
  C        43.3927037757       29.5407059826        5.3663185598
  C        45.5632249799       27.7241753663        2.8578985925
  C        45.5333973381       27.7174113325        1.4366007281
  C        44.8269669012       28.7075546559        0.6836331706
  C        35.1354682357       26.6317718280        0.7312597339
  C        35.1216227401       26.6127596842        3.5409762121
  C        18.1488517479        3.2471199196        5.7067009628
  C        17.4304341359        4.3439572145        4.9973938899
  C        16.4150238439        4.0527232157        4.0740058353
  C        15.7667654717        5.0833620397        3.3986090626
  C        16.1216601963        6.4285905970        3.6210827036
  C        17.1132817569        6.7119408006        4.5781067132
  C        17.7609219246        5.6830217332        5.2579059344
  C        15.4910111542        7.5242145830        2.8486466637
  C        15.4965833300        7.5074106115        1.4275098456
  C        16.1932045595        6.5056411647        0.6807718542
  H        10.6724012776       12.4649385490        3.9054602140
  H        11.6947911374       10.5501537879        2.6636381234
  H        15.3927935441       11.1702408684        4.7707878941
  H        14.3523027366       13.0729437080        6.0158786712
  H        13.3763275327       11.6311248649        1.2013796707
  H        50.3228686194       22.7481612989        3.9865225140
  H        49.3197878282       24.6226772247        2.6805602201
  H        45.6427375189       24.1618909702        4.8643356207
  H        46.6636743369       22.2908249908        6.1725523013
  H        47.6298695613       23.5759126692        1.2462856681
  H        14.8731674328        8.5887786348        4.6085722423
  H        50.2869338528       22.7017506878       12.0611489722
  H        49.2691534601       24.5747029211       13.3611921614
  H        45.6114234221       24.1105671368       11.1449518240
  H        46.6535245505       22.2551924137        9.8305653435
  H        47.6078321080       23.5518326663       14.7969536077
  H        40.6448782202       17.1713792672       11.4107245274
  H        48.6874271129       14.0949354144        7.8000949777
  H        10.6812008008       12.4662498711       12.0927749944
  H        11.6895075685       10.5242966211       13.2964557717
  H        15.3941384262       11.1600077897       11.2066812601
  H        14.3657114863       13.0883908588        9.9914892528
  H        13.3758472769       11.6220834449       14.7531654232
  H        47.9302666903       14.2190005328        9.7108435062
  H        47.7802969322       14.3746624542        6.4958236577
  H        49.0848319998       18.5524734662       10.8674240957
  H        10.4166240583       14.1343107066        7.9988411803
  H        24.4845221961        3.0233747211        3.9150797796
  H        25.6325473353        4.8748550530        2.6870966264
  H        23.2617641603        7.7539780519        4.8293269070
  H        22.1328252847        5.8926667043        6.0601882832
  H        23.8449775832        5.7825021921        1.2453751999
  H        36.3807347971       32.1903483622        3.9637563870
  H        35.2580782235       30.3665948429        2.6804428916
  H        37.5190108065       27.4414601922        4.8791486206
  H        38.6217514217       29.2780995501        6.1710753955
  H        37.0283576502       29.4513986352        1.2638847880
  H        25.7482167507        8.6050195585        4.6429836523
  H        36.4502647115       32.2379649492       12.1065311352
  H        35.3388157607       30.4169674689       13.3984197749
  H        37.5312677984       27.4859921136       11.1376128258
  H        38.6170220061       29.3187353782        9.8328829790
  H        37.0466013501       29.4671642984       14.8152997255
  H        46.1101045744       26.5879871651       11.3856246305
  H        44.6683141001       35.1161664956        7.8139112761
  H        24.4568261194        3.0338046569       12.0718171359
  H        25.6091405318        4.8651402408       13.3122808786
  H        23.2114821547        7.7686271957       11.2347632581
  H        22.0713653240        5.9254967625        9.9930713377
  H        23.8373787708        5.7834389891       14.7975462722
  H        44.9536458198       34.3902392417        9.6950798190
  H        44.9013379116       34.2067396070        6.4905777582
  H        40.6660820177       33.2096281192       10.8533268831
  H        23.1510704160        1.9580903268        8.0043918666
  H        25.8635269855       19.5841351750        3.8263918910
  H        23.6803044762       19.6532046514        2.6267232725
  H        22.3326248851       16.2556043748        4.8943390970
  H        24.5145456614       16.2131561516        6.1065296389
  H        23.7264271003       17.6232400148        1.2426675777
  H        35.1550649965       15.4086760764        3.9731156013
  H        37.2850795668       15.3575179624        2.6667823325
  H        38.7071409289       18.7629777948        4.8765092567
  H        36.5708044169       18.7991822523        6.1794855887
  H        37.2341656651       17.3713882654        1.2484066746
  H        20.3626595571       17.9881798272        4.6669596795
  H        35.2044516366       15.4834360772       12.0418747508
  H        37.3283403082       15.4394286600       13.3525106465
  H        38.7227202431       18.8867354718       11.1903718228
  H        36.5933528886       18.9113709198        9.8742265192
  H        37.2460449861       17.4176587293       14.7950363012
  H        35.1531746582       26.6736723543       11.3897602904
  H        28.4994770294       21.0733834340        7.8744546588
  H        25.7684116803       19.6155958663       12.1781287756
  H        23.5842312752       19.6650031580       13.3931247117
  H        22.3036500279       16.1835873306       11.2170575398
  H        24.4887452321       16.1542308619       10.0003622820
  H        23.7035458418       17.6132799463       14.7960593530
  H        28.9998820705       21.7239550427        9.7399546295
  H        29.1869428044       21.7239866327        6.5650814892
  H        32.1372879839       18.6068148421       10.8940913427
  H        27.4028203871       19.0636559765        8.0217368187
  H        14.8531579839       19.6502822089       12.1386612377
  H        17.0165527751       19.6975291836       13.3789531776
  H        18.3068796072       16.1909563082       11.2491738237
  H        16.1398622741       16.1595395852       10.0077878629
  H        16.9250487653       17.7101232542       14.8456456333
  H        46.0686852913       15.4271112463       12.0435376923
  H        43.9401958578       15.3833725530       13.3476842721
  H        42.5741790498       18.8598173329       11.2137111205
  H        44.7008819629       18.8758632099        9.8965713010
  H        44.0289242599       17.3213414391       14.8217637947
  H        20.2974818676       17.9221920259       11.4188180111
  H        46.0596577198       15.3816937775        4.0358837357
  H        43.9328384220       15.3042486272        2.7332209005
  H        42.5154715641       18.7648106634        4.8583456222
  H        44.6494693671       18.8285171636        6.1617942295
  H        44.0184638552       17.2801663520        1.2714317583
  H        46.1998154043       26.6829646143        4.6233864825
  H        52.7414062077       21.0627205558        8.1947111975
  H        14.8795919475       19.6769878238        3.8962899219
  H        17.0795684616       19.7542791412        2.7170346210
  H        18.3415332717       16.2395753669        4.8497386762
  H        16.1437492638       16.1861718353        6.0391860738
  H        16.9457241746       17.7277890643        1.2922622888
  H        52.3230148877       21.6734487466        6.2940617407
  H        52.0135206392       21.7022422028        9.4956815122
  H        49.0685912146       18.6077769478        5.2035600902
  H        13.2480779545       19.0158961310        7.9773195851
  H        29.9881798707       12.4873603335       12.2499080152
  H        28.9390068707       10.5433107765       13.4097169016
  H        25.3039389957       11.1888185915       11.2038806281
  H        26.3706739777       13.1228011009       10.0369935152
  H        27.2119555379       11.6652462944       14.7931002642
  H        31.0073648424       22.7658554609       12.0117638597
  H        32.0183396519       24.6410976032       13.3133212133
  H        35.7047489511       24.1335808651       11.1563033255
  H        34.6727305850       22.2651027479        9.8494585130
  H        33.6894752523       23.5725509161       14.7554500706
  H        25.7696838109        8.5888082849       11.3953331887
  H        30.9308929576       22.7423224387        3.9520196903
  H        31.9612910184       24.5955136497        2.6398547599
  H        35.6151918363       24.1223697050        4.8598407066
  H        34.5687326067       22.2688556349        6.1717370207
  H        33.6608125240       23.5630308965        1.2073926104
  H        40.6074006105       17.0276020586        4.6485524817
  H        32.5132233380       14.1520684159        8.2299125884
  H        29.9016662915       12.5450485458        3.8962599382
  H        28.8882395301       10.6245595762        2.6670740224
  H        25.2200770524       11.1751259754        4.8444018433
  H        26.2554562285       13.0793229272        6.0869593919
  H        27.1890751682       11.6817705878        1.2400001744
  H        33.2922043209       14.1967556195        6.4375178297
  H        33.4123440830       14.3755815765        9.5984580530
  H        32.0655834693       18.5157532444        5.0614654429
  H        30.2324826474       14.1955876556        8.0655190676
  H        16.1183545025        2.9634249298       12.1294053485
  H        14.9532041061        4.8204462638       13.3222001787
  H        17.3663795768        7.6860897513       11.2101448450
  H        18.5151218604        5.8187056726       10.0103303243
  H        16.7534779967        5.7394862540       14.7714533309
  H        44.8277588852       32.1404834850       11.9775068859
  H        45.9371838637       30.3416797873       13.3069009107
  H        43.6835826345       27.3782467643       11.1518417571
  H        42.6006940127       29.1901071544        9.8092594650
  H        44.2304379542       29.4367342710       14.7689197368
  H        14.8515449395        8.5465984723       11.3633008186
  H        44.8996208740       32.2342243614        3.9314608139
  H        46.0245570363       30.4132112923        2.6519745633
  H        43.7643571892       27.4841910044        4.8459870784
  H        42.6464845495       29.3179265264        6.1250416344
  H        44.2685025037       29.4704812569        1.2182066325
  H        35.0795370241       26.6271446808        4.6284288471
  H        36.6052777877       35.1342249916        8.1806967826
  H        16.1437279064        3.0131779471        3.9044642123
  H        14.9742880512        4.8565572309        2.6886849589
  H        17.3970802583        7.7473759914        4.7547313909
  H        18.5440258427        5.8935471744        5.9824029479
  H        16.7647774758        5.7554728748        1.2191599753
  H        36.2788460290       34.4826437720        6.2731588333
  H        36.3813063529       34.2090988498        9.4995907860
  H        40.5809031987       33.2035282715        5.1533200716
  H        17.4714572092        1.9479416368        7.9744039950
  H        29.2167279716       19.4263177794       12.4331751808
  H        29.7133465839       19.7156673928        3.4443002784
  H        30.4797036046       15.8120488210        3.6784804855
  H        30.9575329436       15.4844237246       12.2728590700
  H        28.0329233089       17.7842688856       14.3182335425
  H        29.2983920482       15.7957616213       14.6438224770
  H        31.4766987099       19.5652918419        1.0711813784
  H        32.4086576493       16.3334515527        1.7901240227
  H        28.2200635278       17.5755521388        3.0638844633
  H        33.6074878635       16.6820818764       14.6398899663
  H        18.8547327554        0.8693846198       12.3354835643
  H        40.5276468289       35.2288180389        3.9518736652
  H        42.3249510796       34.4195659295        3.5901239567
  H        22.0880217080        0.6922160539       12.3517055593
  H        11.5968338255       18.7128556389       12.3827107626
  H        52.2651756719       18.4315899633        3.6772098424
  H        49.2554107029       16.4770780874        3.5843980566
  H        10.1500878076       15.7983036893       12.2930090951
  H        50.8505445549       17.6923920866        3.9541017404
  H        10.0462384165       17.3946500181       12.0519048524
  H        20.2163404675        0.0026487312       12.0418547454
  H        39.1834925803       36.1241801056        3.6862614375
 Ni        30.9047036506       17.8875044553        2.5875688511
 Ni        31.1964826696       16.6906757328       -0.2501768369
 Ni        29.8033216157       18.5796198433       -0.2430681902
 Ni        30.0953179939       17.4251895262       13.0732686931
  O        10.6501065217       14.3650872401        5.4858138916
  O        12.6132906874       14.6575785062        6.5838769017
  O        49.1480374410       16.8458748112        7.9897402976
  O        50.3503184580       20.9357810536        5.6479519457
  O        48.3485650900       20.5933000633        6.6658315420
  O        11.0521857910       17.0536799564        6.5008214787
  O        50.3211169350       20.8816425437       10.4068447185
  O        48.3467672682       20.5867512206        9.3271263776
  O        49.5443828141       18.2484102843       10.0680940965
  O        12.3593313707       18.6246742388        7.9997414818
  O        48.6933277811       14.1484668439        6.7513637063
  O         8.2099533724       14.2104433332        9.3225833032
  O        10.7353417650       14.5067454009       10.6643236477
  O        12.5718829810       14.5828269241        9.3285290925
  O        22.8450651114        2.0437012015        5.4869167583
  O        21.6070233308        3.5934491019        6.5883161195
  O        42.0583786849       34.1377365559        7.9790535578
  O        37.9818508687       33.1389417585        5.5726778270
  O        39.2180778396       31.5763733339        6.6666378040
  O        20.3087256612        1.0403988471        6.5024606756
  O        38.0246610961       33.1857000000       10.4151930815
  O        39.2194396812       31.5839949262        9.3261217607
  O        40.6523779180       33.7696794070       10.0602719087
  O        18.2558631449        1.3763717068        7.9969455832
  O        44.6221728174       35.1005895921        6.7587478006
  O        24.2054430239        0.0000280982        9.3207676376
  O        22.7536431634        2.0579955307       10.5843953833
  O        21.6263369166        3.5979698585        9.3460682700
  O        27.5433333996       18.6812990545        5.4117990512
  O        26.7680188609       16.9328034737        6.6485840340
  O        30.6673683023       19.4021472979        7.9897256543
  O        33.5781218155       16.2676284410        5.6485308609
  O        34.2726395334       18.1778139650        6.6640563785
  O        29.5863427126       17.0634215391        6.5641621734
  O        33.6213296764       16.3426188898       10.4020729660
  O        34.3134046599       18.2340823871        9.3320560663
  O        31.7134032314       18.3133775593       10.0714577435
  O        30.3265282224       15.1624617549        8.0675556525
  O        28.5537742707       21.0295480836        6.8251003401
  O        28.5134102629       20.9543915891        9.3988812384
  O        27.4665503134       18.6800275736       10.6531412707
  O        26.6986053661       16.9301069362        9.4083808670
  O        13.1494789042       18.6928448209       10.5874465668
  O        13.9198788427       16.9163825565        9.4051894225
  O        50.5965854642       19.3502426315        8.0204070187
  O        47.6827698740       16.3271543253       10.4171551292
  O        46.9525461854       18.1764283410        9.3235963776
  O        11.0703082355       17.0152658413        9.4895277451
  O        47.6776015174       16.3352338065        5.6536260143
  O        46.9254876696       18.2355110591        6.6632490094
  O        49.5689336014       18.3176836637        5.9822549542
  O        10.3187863122       15.1001096428        7.9971144141
  O        52.6707663121       21.0278408340        9.2418042675
  O        12.1468598830       20.8912237979        6.6733168667
  O        13.1081869285       18.6136934128        5.3255405731
  O        13.9578784875       16.9875322278        6.6648283128
  O        30.0107819316       14.4994935387       10.7223492535
  O        28.0950927043       14.6560261690        9.4934597815
  O        32.1375071330       16.8581942860        8.0000158692
  O        30.9686854236       20.9534695315       10.3964000297
  O        32.9506233450       20.5971641083        9.3287604297
  O        29.5725696549       17.0809386294        9.5647399591
  O        30.8736308257       20.9450678404        5.6525519158
  O        32.8771135103       20.5909915860        6.6582839126
  O        31.6835651150       18.2510745932        5.9166748257
  O        28.2933623505       18.6764136051        8.0070934591
  O        32.4928300615       14.2143449697        9.3184708887
  O        32.3978044194       14.2188567177        6.8169831168
  O        29.8825179747       14.5152868597        5.4070923776
  O        28.0466882199       14.5864627563        6.7462165211
  O        17.8892868137        1.9667305548       10.6626759125
  O        18.9564132976        3.5272184724        9.4078763048
  O        39.1686973821       34.1389766067        7.9973375320
  O        43.2802558312       33.0590527878       10.3317143033
  O        42.0346046988       31.5064360026        9.2416635950
  O        20.3181120223        1.0372499356        9.4797753735
  O        43.2761091385       33.1826788213        5.5748765865
  O        42.0052813362       31.5841594966        6.5829601453
  O        40.5790575625       33.7752481349        5.9361271499
  O        22.3676470892        1.3852189777        7.9981066823
  O        36.6728897142       35.0998335869        9.2333467768
  O        16.4456681343        0.0644691237        6.6683768476
  O        17.9365195988        2.0434404113        5.3264652334
  O        18.9193939910        3.5931702386        6.6660195314
  O        29.9352259508       18.8981237349        3.9254687333
  O        29.9115544737       18.9653945842       11.9235475043
  O        31.2121867722       16.4151775356        3.9145900145
  O        31.3530585997       16.3426626460       12.0083391734
  O        32.0838185962       17.1379077447        1.3390006916
  O        27.9190957721       16.9987441335        2.3332691923
  O        30.2004931996       15.9694230114       14.3198589884
  O        32.8724896574       16.0502376428       14.5634410932
  O        30.5787449795       19.2685970104        1.3152165555
  O        28.8397989107       18.3213832462       14.2170253176
  O        39.4565806018       35.2435870470        4.0020007573
  O        19.1426938655        0.0050669722       11.9904291931
  O        41.9694774908       35.1726056185        4.0872150160
  O        21.6915987784       -0.0692628701       11.8961181817
  O        51.3652354721       18.6143317481        4.0053688368
  O        10.7511224104       18.7471271007       11.9049407803
  O        50.0797945921       16.4127621582        4.0916594185
  O         9.5243689629       16.4831730898       11.9911700948
 Zr         9.2982871205       16.0525334676        6.1825792463
 Zr        49.8376577781       16.0066948390        9.7462513799
 Zr        22.0733117832        0.0308289467        6.1888832081
 Zr        42.4611652559       35.1542733686        9.8011788252
 Zr        29.6192711716       19.0687025476        6.1955335097
 Zr        29.5952850550       19.1893354888        9.7966358232
 Zr        11.0393685424       19.0515997620        9.8279510582
 Zr        11.0451942405       19.1545425888        6.2506828433
 Zr        31.3794737337       16.1220346803        9.8034656688
 Zr        31.3910309169       16.0231481228        6.1991534302
 Zr        18.6016109597       -0.0005502323        9.7634372015
 Zr        18.5067845544       -0.0066401425        6.2141296717
 Zr        12.3040293210       16.3236938085        7.9902609260
 Zr        48.6180111706       18.8332985258        8.0097786198
 Zr        20.3167026391        2.4752216453        7.9910816362
 Zr        40.6439864942       32.6878444471        7.9782763222
 Zr        28.3455414483       16.3477512430        8.0756922944
 Zr        32.6387817019       18.8458853279        7.9985561895
  H        32.5325045830       16.1575495361       13.6353020542
  H        28.5085903566       17.2615935547        1.5962864838
