     574
 i =      465, E =     -4778.9312391584
  C        11.8590218397       14.0536230718        5.7414595111
  C        12.4566319066       12.8908466301        5.0230362948
  C        11.7047232177       12.1713191727        4.0819990834
  C        12.2811468714       11.1090882890        3.3897355311
  C        13.6219896287       10.7399183156        3.6169188022
  C        14.3554757056       11.4442116071        4.5896071664
  C        13.7825334303       12.5092309537        5.2810218739
  C        14.2614406936        9.6491298493        2.8435955173
  C        14.2564439807        9.6568545558        1.4218983333
  C        13.7431949940       10.7589620458        0.6680315272
  C        49.1270066952       21.2331314539        5.8795997494
  C        48.5502603751       22.4012578196        5.1526300368
  C        49.3002164163       23.0684417788        4.1715069394
  C        48.7332858512       24.1076014618        3.4383043484
  C        47.4028317005       24.5094047355        3.6671067536
  C        46.6719697339       23.8606808044        4.6807808767
  C        47.2344278055       22.8157610854        5.4101137309
  C        46.7725147684       25.5870685879        2.8698273959
  C        46.7612808205       25.5573458124        1.4480615712
  C        47.2611749038       24.4422291471        0.7045742751
  C        14.8602749762        8.5704626839        0.7086325248
  C        14.8923829564        8.5972936424        3.5202524196
  C        49.1134205045       21.2033673581       10.1452657956
  C        48.5280484657       22.3648631462       10.8724596964
  C        49.2670751807       23.0251043270       11.8658150602
  C        48.6908075621       24.0597035330       12.5972963908
  C        47.3606225923       24.4569651228       12.3586671345
  C        46.6404596398       23.8125934735       11.3346265529
  C        47.2139704975       22.7766752576       10.6028186409
  C        46.7221388936       25.5319280497       13.1496874641
  C        46.7335781309       25.5281636719       14.5714018454
  C        47.2489014529       24.4289182113       15.3278134062
  C        40.6301577327       17.1219669863       15.3068415993
  C        40.6405962720       17.1844644922       12.4979583274
  C        11.8830938525       14.0865741294       10.2855167016
  C        12.4724273781       12.9108839128       10.9898803783
  C        11.7147239825       12.1773518752       11.9155830834
  C        12.2813084751       11.0948863561       12.5839830381
  C        13.6202872554       10.7214940593       12.3525210482
  C        14.3585142598       11.4374884766       11.3922440052
  C        13.7930973507       12.5186811435       10.7195660831
  C        14.2537658513        9.6245979130       13.1228623497
  C        14.2524428601        9.6444737639       14.5447028662
  C        13.7425510292       10.7534080686       15.2917797862
  C        22.5119478732        3.2454522452        5.7503446752
  C        23.2255559696        4.3488506737        5.0452279858
  C        24.2228920814        4.0646747224        4.1002796457
  C        24.8527575323        5.1006014358        3.4149475371
  C        24.5015759981        6.4444518522        3.6530111833
  C        23.5304704025        6.7200671772        4.6333679765
  C        22.8963599038        5.6859107716        5.3177088593
  C        25.1153236175        7.5484404901        2.8783544273
  C        25.1024694944        7.5390707885        1.4560760323
  C        24.4067624390        6.5397987911        0.7039432877
  C        38.3034769993       31.9307305082        5.8485010474
  C        37.5751921774       30.8418317518        5.1366840887
  C        36.6164521640       31.1468998517        4.1586135560
  C        35.9998420449       30.1274226321        3.4387410977
  C        36.3274516063       28.7782638868        3.6760652500
  C        37.2572506130       28.4805745864        4.6899409043
  C        37.8779967175       29.4987980445        5.4085269218
  C        35.7236890169       27.6871027466        2.8794800607
  C        35.7536035859       27.7010285884        1.4582326626
  C        36.4600566447       28.7021983949        0.7199716953
  C        25.7325951407        8.6079828279        0.7402622641
  C        25.7068600484        8.6247440009        3.5527157062
  C        38.3285840678       31.9624106588       10.1553098886
  C        37.6062558663       30.8883268311       10.8954651381
  C        36.6751594862       31.1957799245       11.8991618195
  C        36.0652240234       30.1762534248       12.6273459340
  C        36.3724820993       28.8242579050       12.3752274656
  C        37.2808650605       28.5266448801       11.3411090318
  C        37.8927187147       29.5426904658       10.6140522725
  C        35.7658356845       27.7248528918       13.1597747403
  C        35.7753303626       27.7202012129       14.5816640810
  C        36.4697011204       28.7118916025       15.3432828309
  C        46.1355173654       26.6207868171       15.2815272150
  C        46.0883580145       26.5804040679       12.4736476919
  C        22.4680140536        3.2574501350       10.2566071590
  C        23.1772116158        4.3641199371       10.9714739484
  C        24.1869361339        4.0732259192       11.9032273977
  C        24.8291774668        5.0996438044       12.5926488349
  C        24.4832846347        6.4486667919       12.3750043124
  C        23.4975740922        6.7328261090       11.4105325492
  C        22.8509811141        5.7066025423       10.7209195299
  C        25.1219620820        7.5428231301       13.1520169112
  C        25.1062563922        7.5356788200       14.5753503091
  C        24.4061421733        6.5395885513       15.3269787620
  C        26.6388470140       17.8287821263        5.7478641697
  C        25.3291689463       17.8816376894        5.0348258387
  C        25.0840522523       18.8550566113        4.0539418409
  C        23.8645778605       18.8846446124        3.3815040644
  C        22.8564386464       17.9394245000        3.6606103033
  C        23.0993119061       16.9884509219        4.6700902709
  C        24.3182979445       16.9570879128        5.3452767772
  C        21.5821773944       17.9259424807        2.8986084835
  C        21.5819515865       17.8968232781        1.4755766180
  C        22.7863650314       17.7555872214        0.7156457352
  C        34.4371632044       17.1858207723        5.8786843460
  C        35.7343372957       17.1139223023        5.1473285361
  C        35.9393465785       16.1404078446        4.1579357739
  C        37.1239344454       16.1215224906        3.4267594993
  C        38.1339921077       17.0723875930        3.6695655541
  C        37.9337591079       18.0220498752        4.6889443965
  C        36.7460529812       18.0483615861        5.4146901549
  C        39.3874961033       17.0849487682        2.8833760504
  C        39.3794719282       17.1165305564        1.4625483100
  C        38.1702739006       17.2542212291        0.7109402239
  C        20.3351961575       17.9242592405        0.7670908471
  C        20.3566215260       17.9370235638        3.5804233368
  C        34.4744118345       17.2595977220       10.1467864263
  C        35.7681423339       17.2013625339       10.8858691100
  C        35.9720228260       16.2290440828       11.8774980368
  C        37.1550160279       16.2119209312       12.6100207858
  C        38.1628302688       17.1671423616       12.3730570578
  C        37.9621513788       18.1181927214       11.3548556980
  C        36.7776058984       18.1396024602       10.6231115736
  C        39.4112219139       17.1744301894       13.1660695400
  C        39.3913554604       17.1648591342       14.5872466443
  C        38.1767479906       17.2783734596       15.3345233305
  C        35.1437739733       26.6425239037       15.2867952978
  C        35.1775627969       26.6525169684       12.4778221234
  C        26.5790423122       17.8284634827       10.3269002202
  C        25.2646349689       17.8709124418       11.0341945841
  C        25.0034851486       18.8673380542       11.9870552427
  C        23.7852547754       18.8904425533       12.6604678568
  C        22.7977761413       17.9177899723       12.4043022556
  C        23.0536534330       16.9466885514       11.4193188790
  C        24.2729088296       16.9207332574       10.7449228449
  C        21.5329586570       17.8984059411       13.1756230222
  C        21.5562493339       17.8829921139       14.5972265239
  C        22.7729441241       17.7508492674       15.3391006297
  C        14.0481340544       17.8293787213       10.2888642416
  C        15.3531691572       17.8877356867       11.0128977723
  C        15.6099826069       18.8905680044       11.9611242008
  C        16.8194580041       18.9121430909       12.6533575813
  C        17.8072745066       17.9336544770       12.4204305839
  C        17.5553021084       16.9556109988       11.4394875417
  C        16.3454336646       16.9294275911       10.7486303530
  C        19.0764127243       17.9151021490       13.1899977144
  C        19.0748774565       17.9117541365       14.6128140794
  C        17.8676017101       17.8189656588       15.3743764574
  C        46.8050297167       17.2182273589       10.1560448097
  C        45.5122359915       17.1572894464       10.8962961728
  C        45.2941747113       16.1698889363       11.8690996684
  C        44.1104162897       16.1558022394       12.6017359579
  C        43.1169331957       17.1301005064       12.3837669138
  C        43.3313216393       18.0963785952       11.3828234110
  C        44.5151327930       18.1134677505       10.6503454179
  C        41.8655214847       17.1485396144       13.1736401430
  C        41.8749613544       17.1333023592       14.5952459745
  C        43.0866505989       17.2119106129       15.3514610785
  C        20.3215252101       17.9155607546       15.3217727091
  C        20.3010933306       17.8932206295       12.5082804154
  C        46.7865652664       17.2307598201        5.8876449842
  C        45.4864060948       17.1204044859        5.1670640596
  C        45.2773584658       16.1198072983        4.2057514183
  C        44.0922680166       16.0848687250        3.4751263803
  C        43.0871260531       17.0474097876        3.6896562816
  C        43.2871502519       18.0187367351        4.6883531536
  C        44.4734717956       18.0601123965        5.4139613036
  C        41.8409411512       17.0624340402        2.8925703134
  C        41.8631082443       17.0870410596        1.4717231386
  C        43.0809164549       17.1899015753        0.7282663536
  C        46.1533009864       26.6372370456        0.7262922251
  C        46.1626489438       26.6562519497        3.5359396809
  C        14.0468907452       17.8324663561        5.7083893273
  C        15.3684530300       17.9080036774        5.0186836592
  C        15.6422124885       18.9230212551        4.0894585689
  C        16.8716971509       18.9610203669        3.4351543965
  C        17.8562332756       17.9830731938        3.6832141377
  C        17.5893583985       16.9975157443        4.6512560776
  C        16.3620849276       16.9590414201        5.3093182800
  C        19.1238717193       17.9564910873        2.9137725586
  C        19.0998875845       17.9315629724        1.4919715087
  C        17.8799555822       17.8278699796        0.7507189769
  C        28.8340901338       14.1215207314       10.3992931551
  C        28.2426241387       12.9404482757       11.0932117313
  C        28.9685736185       12.2047504511       12.0419856301
  C        28.3786636464       11.1181564627       12.6851650671
  C        27.0487788885       10.7415221905       12.4055020605
  C        26.3455475272       11.4588346608       11.4207797138
  C        26.9320759530       12.5443305628       10.7763589476
  C        26.3813696366        9.6539632198       13.1598894806
  C        26.3567102977        9.6797718656       14.5810845617
  C        26.8499304742       10.7945851276       15.3306059144
  C        32.1843515134       21.2381889683       10.1362648074
  C        32.7797748893       22.4014101041       10.8586078869
  C        32.0294014177       23.0816662955       11.8302307605
  C        32.5993471073       24.1204975589       12.5597735738
  C        33.9353467625       24.5070016266       12.3386742805
  C        34.6684934897       23.8452492024       11.3356421939
  C        34.1008322960       22.8011097862       10.6078022540
  C        34.5624534396       25.5837023416       13.1386108224
  C        34.5512793049       25.5582726659       14.5602549393
  C        34.0379021268       24.4463695404       15.2999960140
  C        25.7401750003        8.6020190497       15.2949767594
  C        25.7464939009        8.6040253069       12.4814731632
  C        32.1013457801       21.2314338718        5.8728643353
  C        32.6894818655       22.3862611255        5.1352123604
  C        31.9528503009       23.0517823792        4.1430407342
  C        32.5337424904       24.0813506656        3.4066186834
  C        33.8648662784       24.4759804462        3.6448615510
  C        34.5836864727       23.8256385033        4.6661866758
  C        34.0078608373       22.7901826510        5.3974381712
  C        34.5062415868       25.5551889612        2.8590768534
  C        34.5211200197       25.5443471072        1.4372512694
  C        34.0220348007       24.4403885463        0.6768139243
  C        40.6239828185       17.0974836428        0.7510408075
  C        40.6116952586       17.0769303063        3.5605600811
  C        28.7213751517       14.0967377483        5.7837938063
  C        28.1215329075       12.9419061203        5.0552050200
  C        28.8654232853       12.2367485188        4.0965251261
  C        28.2930130472       11.1691030721        3.4095641764
  C        26.9598181598       10.7814029865        3.6528681324
  C        26.2337367257       11.4732020998        4.6406397778
  C        26.8052118461       12.5396258033        5.3319706208
  C        26.3251059149        9.6865056615        2.8794865036
  C        26.3284687936        9.6972340350        1.4573211492
  C        26.8335351449       10.8048188508        0.7063699807
  C        18.1354801020        3.1811899943       10.3170998332
  C        17.4060634601        4.2783397389       11.0154859168
  C        16.3904225386        3.9999029943       11.9431091950
  C        15.7426809615        5.0398261059       12.6066348309
  C        16.0944440624        6.3836034208       12.3669414087
  C        17.0836933448        6.6531943433       11.4030456336
  C        17.7328346757        5.6159166421       10.7379367714
  C        15.4701009698        7.4912127477       13.1300828422
  C        15.4853058278        7.4904034152       14.5518003847
  C        16.1868434306        6.4967709051       15.3049592543
  C        42.9459813061       31.8596570780       10.0728841764
  C        43.6464621015       30.7720116710       10.8168194423
  C        44.5916929979       31.0933852038       11.8031597438
  C        45.1974374363       30.0878668064       12.5508408080
  C        44.8714357431       28.7347469146       12.3356917771
  C        43.9459971954       28.4203726863       11.3221281772
  C        43.3371418406       29.4254745602       10.5740724574
  C        45.4889572728       27.6554326628       13.1389028781
  C        45.4928986560       27.6809617533       14.5605978773
  C        44.8057301190       28.6889501848       15.3072256668
  C        14.8563473720        8.5628740609       15.2642031404
  C        14.8750098404        8.5631225034       12.4515290437
  C        42.9465563798       31.9617557968        5.8090301284
  C        43.6918600592       30.8856217724        5.0955912183
  C        44.6561951057       31.1915307939        4.1230361561
  C        45.2776812147       30.1719529902        3.4052573897
  C        44.9542765467       28.8215964546        3.6432006630
  C        44.0210765761       28.5239395479        4.6542580726
  C        43.3928606832       29.5406987968        5.3664881496
  C        45.5632103962       27.7241832841        2.8578866912
  C        45.5333054752       27.7173809533        1.4365891396
  C        44.8269854586       28.7076007872        0.6836195558
  C        35.1306561091       26.6340683025        0.7316729644
  C        35.1188757483       26.6128497928        3.5414379753
  C        18.1488148962        3.2471496699        5.7067161469
  C        17.4303775371        4.3439736503        4.9974437201
  C        16.4150866178        4.0527258323        4.0739220553
  C        15.7668025447        5.0833580318        3.3985472202
  C        16.1216051798        6.4286000193        3.6210943287
  C        17.1131121418        6.7119691363        4.5782375549
  C        17.7607703751        5.6830559478        5.2580269012
  C        15.4910091466        7.5242426267        2.8486516151
  C        15.4965432516        7.5073894350        1.4275155725
  C        16.1932025485        6.5056510195        0.6807729937
  H        10.6723843435       12.4649696929        3.9054344830
  H        11.6947462450       10.5501267690        2.6636564883
  H        15.3928161514       11.1703450401        4.7706863728
  H        14.3523162104       13.0731019856        6.0157180547
  H        13.3763534600       11.6311458345        1.2013670153
  H        50.3228777125       22.7482935813        3.9866629634
  H        49.3197675124       24.6227817427        2.6806605295
  H        45.6425741342       24.1616690334        4.8641417753
  H        46.6635481140       22.2906279876        6.1723774033
  H        47.6297785724       23.5758922196        1.2462834473
  H        14.8731006579        8.5888087077        4.6085684793
  H        50.2869519509       22.7018683788       12.0610084156
  H        49.2691496180       24.5747966986       13.3610829246
  H        45.6112901064       24.1103555652       11.1451266745
  H        46.6534121439       22.2549983428        9.8307369620
  H        47.6077524991       23.5518211717       14.7969361750
  H        40.6439150233       17.1632619107       11.4098658052
  H        48.6873772803       14.0949498703        7.8001050980
  H        10.6811301244       12.4661710898       12.0926708305
  H        11.6894239825       10.5242186706       13.2963831621
  H        15.3941620935       11.1600802975       11.2067969542
  H        14.3657238662       13.0884699357        9.9915860814
  H        13.3758552933       11.6220757001       14.7531364350
  H        47.9302467142       14.2190293876        9.7108351500
  H        47.7802546517       14.3745344442        6.4957345978
  H        49.0847110163       18.5523731186       10.8674241875
  H        10.4165200857       14.1343101113        7.9988388301
  H        24.4833800664        3.0251725886        3.9138576314
  H        25.6274032461        4.8782537993        2.6842430455
  H        23.2503368288        7.7540015895        4.8240982838
  H        22.1257488501        5.8911991095        6.0568219090
  H        23.8407542459        5.7832598238        1.2396637688
  H        36.3794273858       32.1903766222        3.9650035824
  H        35.2556084078       30.3669415104        2.6824219466
  H        37.5176834014       27.4412745312        4.8793182725
  H        38.6214730679       29.2776331814        6.1706276446
  H        37.0258539621       29.4519827651        1.2652784257
  H        25.7312670443        8.6096251965        4.6408821556
  H        36.4506227559       32.2396881045       12.1062043831
  H        35.3378071134       30.4198156804       13.3985565747
  H        37.5297786014       27.4867992159       11.1398752840
  H        38.6168724428       29.3184670830        9.8346586142
  H        37.0438814899       29.4687863166       14.8167490570
  H        46.1100993586       26.5879626319       11.3856226993
  H        44.6683466890       35.1161540654        7.8139013322
  H        24.4591323661        3.0334007720       12.0698063605
  H        25.6139893465        4.8642906660       13.3084349737
  H        23.2171546142        7.7688772275       11.2315409411
  H        22.0744453453        5.9261813914        9.9917011254
  H        23.8391860861        5.7834622392       14.7917376631
  H        44.9536761895       34.3902384595        9.6950841834
  H        44.9013887144       34.2067807872        6.4905090319
  H        40.6661807636       33.2096724867       10.8533678473
  H        23.1511042382        1.9580657604        8.0042051586
  H        25.8623458319       19.5800788953        3.8290105941
  H        23.6801416132       19.6468353741        2.6276655967
  H        22.3339700170       16.2484768535        4.8950582408
  H        24.5149647546       16.2086877577        6.1092679962
  H        23.7266580210       17.6184169460        1.2425743025
  H        35.1525300916       15.4138886312        3.9688256789
  H        37.2821098698       15.3632805424        2.6629263163
  H        38.7075901394       18.7626509817        4.8800111392
  H        36.5713643604       18.7979841742        6.1828680942
  H        37.2331511982       17.3734180561        1.2473445411
  H        20.3635810455       17.9817954073        4.6681283447
  H        35.1878838940       15.4995067949       12.0667764042
  H        37.3141126568       15.4507412091       13.3706587581
  H        38.7331497789       18.8629566105       11.1683899437
  H        36.6034933298       18.8885135847        9.8539916167
  H        37.2443438926       17.4174524557       14.7953828191
  H        35.1512101351       26.6765681937       11.3900557089
  H        28.4992738999       21.0734640800        7.8793535416
  H        25.7678370938       19.6166954540       12.1804955002
  H        23.5830862617       19.6667973225       13.3952280999
  H        22.3001236913       16.1887247448       11.2152309163
  H        24.4852657974       16.1589317412        9.9986821573
  H        23.7028629681       17.6121789841       14.7957939737
  H        29.0013655823       21.7247429325        9.7403697051
  H        29.1908266408       21.7186753675        6.5676347263
  H        32.1334340047       18.6069604418       10.9064163508
  H        27.4018961440       19.0647700202        8.0802178837
  H        14.8512135960       19.6490120698       12.1405159587
  H        17.0140481166       19.6963222631       13.3818697326
  H        18.3070413183       16.1921543015       11.2497701792
  H        16.1404532239       16.1605334615       10.0074965105
  H        16.9243009931       17.7078171074       14.8476282000
  H        46.0695154299       15.4279119903       12.0449356149
  H        43.9408446354       15.3833154758       13.3485902712
  H        42.5717958319       18.8562244202       11.2109359423
  H        44.6988777913       18.8734182304        9.8945419773
  H        44.0276442491       17.3235868959       14.8204271500
  H        20.2956250039       17.9260450820       11.4202078752
  H        46.0593074480       15.3838649933        4.0331905727
  H        43.9325814081       15.3080292606        2.7305207212
  H        42.5154371349       18.7663717112        4.8593485854
  H        44.6493296056       18.8285451151        6.1627815779
  H        44.0175466882       17.2844608001        1.2700955400
  H        46.1997664283       26.6829149261        4.6233761208
  H        52.7413866536       21.0627023075        8.1947004129
  H        14.8815538742       19.6762977218        3.8964013804
  H        17.0821215659       19.7515246899        2.7179688915
  H        18.3403211860       16.2360097292        4.8515068798
  H        16.1420276941       16.1846772364        6.0401727478
  H        16.9457792473       17.7236862591        1.2943438988
  H        52.3229698352       21.6734146207        6.2940571535
  H        52.0134731542       21.7022171658        9.4956319455
  H        49.0684577381       18.6077187530        5.2035982080
  H        13.2480685737       19.0158807965        7.9773151951
  H        29.9929238626       12.4959021058       12.2635806827
  H        28.9448491027       10.5486265752       13.4190119411
  H        25.3177519115       11.1811618967       11.1962446295
  H        26.3837835897       13.1166639042       10.0324130959
  H        27.2142512868       11.6651059744       14.7936640427
  H        31.0026450397       22.7714246118       12.0080008503
  H        32.0121150534       24.6477039920       13.3084821733
  H        35.7024117527       24.1348905993       11.1593425635
  H        34.6719539496       22.2654083552        9.8530043003
  H        33.6796325696       23.5780040749       14.7545938705
  H        25.7815223647        8.5866514098       11.3935135503
  H        30.9274440927       22.7428129190        3.9542572776
  H        31.9562778697       24.5977243083        2.6428741209
  H        35.6138654320       24.1199692021        4.8558366797
  H        34.5688801857       22.2650077342        6.1668999093
  H        33.6515875003       23.5672616983        1.2063722361
  H        40.6071010946       17.0307287014        4.6479005731
  H        32.5134791445       14.1515153588        8.2390802972
  H        29.8943787345       12.5349797339        3.9091090361
  H        28.8777442969       10.6185811744        2.6758302216
  H        25.2019205031       11.1879066736        4.8352129924
  H        26.2398883474       13.0895117975        6.0806267570
  H        27.1823360504       11.6838599061        1.2405415747
  H        33.2920405708       14.1930091246        6.4372142672
  H        33.4118174028       14.3766801972        9.6024555156
  H        32.0714347784       18.5164772971        5.0785178718
  H        30.2321500588       14.1958037897        8.0777709777
  H        16.1184698987        2.9633889117       12.1295742192
  H        14.9533189317        4.8203974451       13.3223693403
  H        17.3660773437        7.6860835351       11.2099208222
  H        18.5148451501        5.8187295512       10.0101001279
  H        16.7534666953        5.7394822294       14.7714701264
  H        44.8276828437       32.1404968877       11.9775711145
  H        45.9370889730       30.3417020486       13.3069655152
  H        43.6837466397       27.3782511913       11.1516735158
  H        42.6008788489       29.1900962176        9.8090810217
  H        44.2304541182       29.4367698163       14.7689189102
  H        14.8514318536        8.5465658190       11.3633019953
  H        44.8995284556       32.2342223496        3.9313709552
  H        46.0244133244       30.4132149873        2.6518567557
  H        43.7644991446       27.4841731724        4.8461400630
  H        42.6466694756       29.3178990373        6.1252349636
  H        44.2685012689       29.4705146793        1.2181878875
  H        35.0777994872       26.6262328435        4.6289515447
  H        36.6053171367       35.1342608709        8.1806752191
  H        16.1438409727        3.0131771823        3.9043266063
  H        14.9743964093        4.8565482330        2.6885479587
  H        17.3968228022        7.7474129724        4.7549632849
  H        18.5437598277        5.8935926563        5.9826513367
  H        16.7647778439        5.7554835899        1.2191549317
  H        36.2788499148       34.4826959919        6.2731318954
  H        36.3812667029       34.2091242655        9.4995303353
  H        40.5809368500       33.2035196421        5.1532134336
  H        17.4715152040        1.9479808014        7.9744122566
  H        29.2700830858       19.4879641016       12.5093149686
  H        29.7154153905       19.6398814923        3.4889383293
  H        30.4280668996       15.7368495740        3.8020062802
  H        30.9446962209       15.5306544359       12.3414275493
  H        28.0395434402       17.9265871315       14.4585249275
  H        29.1467721476       15.6955013113       14.5750499807
  H        31.5314040367       19.5117645535        1.2826590528
  H        32.2371828752       16.1014623964        1.9376610088
  H        28.1997370793       17.6116730361        3.0817609861
  H        33.4205789753       16.9581189090       14.5989652487
  H        18.8551878471        0.8695523784       12.3354803351
  H        40.5281371810       35.2293846732        3.9518804618
  H        42.3250343501       34.4198277200        3.5901474293
  H        22.0881507308        0.6922818455       12.3516870317
  H        11.5968845046       18.7129509846       12.3826572972
  H        52.2650556120       18.4314566985        3.6772032752
  H        49.2549387177       16.4771434543        3.5846374107
  H        10.1507848376       15.7982243115       12.2927126100
  H        50.8503560417       17.6924162137        3.9541080724
  H        10.0465434366       17.3946175342       12.0519181190
  H        20.2169110587        0.0028139281       12.0417663856
  H        39.1839919904       36.1249726385        3.6865263219
 Ni        30.9047471305       17.7940880685        2.7511035471
 Ni        31.0333887394       16.5893423726       -0.1667046690
 Ni        29.8456825835       18.5978577035       -0.0821784645
 Ni        30.0146455767       17.4260707604       13.1556209755
  O        10.6500691276       14.3650663629        5.4858333859
  O        12.6132335472       14.6575486000        6.5839308926
  O        49.1479827069       16.8458603211        7.9897611450
  O        50.3503099813       20.9358487257        5.6479847588
  O        48.3485569049       20.5933433698        6.6658617495
  O        11.0520702698       17.0537190406        6.5008230206
  O        50.3210879334       20.8816597981       10.4068512295
  O        48.3467337259       20.5867597133        9.3271372779
  O        49.5443286416       18.2484005571       10.0681009672
  O        12.3593193247       18.6246599099        7.9996953494
  O        48.6932970063       14.1484663974        6.7513717947
  O         8.2099423628       14.2104832528        9.3225790972
  O        10.7352982517       14.5066968069       10.6642671410
  O        12.5718401168       14.5828159627        9.3285121618
  O        22.8450011949        2.0437035672        5.4869387144
  O        21.6067721235        3.5932707054        6.5885877576
  O        42.0583958093       34.1377294655        7.9790705894
  O        37.9818715233       33.1388278143        5.5726060253
  O        39.2180792013       31.5763431678        6.6665695674
  O        20.3087535677        1.0404192920        6.5024849387
  O        38.0247110922       33.1858274079       10.4151770101
  O        39.2194019895       31.5839444274        9.3261914374
  O        40.6524007832       33.7696686352       10.0602712299
  O        18.2559307839        1.3764200909        7.9969108093
  O        44.6221945052       35.1006054295        6.7587436332
  O        24.2054752608        0.0000283132        9.3207711372
  O        22.7536439701        2.0580331531       10.5844694087
  O        21.6264500080        3.5981219844        9.3463333432
  O        27.5401989745       18.6825199075        5.4183626719
  O        26.7684777328       16.9331692440        6.6541805057
  O        30.6661495783       19.4022240509        8.0032191467
  O        33.5780291891       16.2670505152        5.6518556988
  O        34.2720544172       18.1781326888        6.6656885667
  O        29.5792915015       17.0637533167        6.5751403106
  O        33.6143325318       16.3442415535       10.4066644199
  O        34.3126496907       18.2325412379        9.3338035758
  O        31.7121728476       18.3156629767       10.0813717542
  O        30.3269519892       15.1626535869        8.0747067506
  O        28.5526427967       21.0292342042        6.8292218729
  O        28.5155745709       20.9528991069        9.4034037523
  O        27.4659654191       18.6791335463       10.6583945370
  O        26.6975637120       16.9292812998        9.4122764274
  O        13.1492625165       18.6928553843       10.5874500761
  O        13.9198439175       16.9163881483        9.4052775379
  O        50.5965522653       19.3502163296        8.0203774449
  O        47.6827984390       16.3271502314       10.4171703369
  O        46.9525357772       18.1763519436        9.3236523168
  O        11.0702961938       17.0152795262        9.4895470831
  O        47.6774257288       16.3353100748        5.6535710220
  O        46.9254887521       18.2355198528        6.6632578876
  O        49.5688624887       18.3176994908        5.9822826370
  O        10.3187905257       15.1001229980        7.9971195922
  O        52.6707749833       21.0278528496        9.2418064532
  O        12.1468587000       20.8912144476        6.6733147116
  O        13.1083036209       18.6136539773        5.3255558719
  O        13.9576978277       16.9874259114        6.6649898655
  O        30.0173104650       14.5048341564       10.7295179169
  O        28.0993411127       14.6555361788        9.4977271857
  O        32.1333390608       16.8595797652        8.0207597664
  O        30.9681785232       20.9517569798       10.4015722487
  O        32.9495222436       20.5983773211        9.3303829005
  O        29.5752290951       17.0810659626        9.5732361711
  O        30.8722522684       20.9432275091        5.6527271830
  O        32.8763441572       20.5911286578        6.6589439733
  O        31.6838435161       18.2495424892        5.9305409586
  O        28.2915956110       18.6756422303        8.0628785985
  O        32.4918988483       14.2157988813        9.3236785955
  O        32.3996500782       14.2154382320        6.8212071119
  O        29.8761258084       14.5087930953        5.4118905515
  O        28.0436329610       14.5868744967        6.7503668001
  O        17.8893560639        1.9667435078       10.6627461411
  O        18.9564961498        3.5272116062        9.4079515981
  O        39.1687023624       34.1389495883        7.9972935894
  O        43.2802500375       33.0590668732       10.3317147037
  O        42.0345697797       31.5064578151        9.2416591509
  O        20.3181578377        1.0372632858        9.4798115006
  O        43.2760730027       33.1827063398        5.5749146380
  O        42.0052901630       31.5841540913        6.5829695985
  O        40.5790117907       33.7752583279        5.9360032600
  O        22.3676179162        1.3852874013        7.9981104419
  O        36.6728834606       35.0998509866        9.2333298951
  O        16.4457113340        0.0644866114        6.6683631327
  O        17.9365510155        2.0434404124        5.3264932618
  O        18.9193954023        3.5931236509        6.6660347384
  O        29.9002622391       18.8343238207        4.0060716786
  O        29.9110559475       18.9626624998       11.9928468406
  O        31.1737358216       16.3372404239        4.0038875916
  O        31.3010241582       16.4058304727       12.0747035325
  O        31.9541443628       16.9169831207        1.4812820833
  O        27.8746568652       17.0712633859        2.3336561233
  O        30.0639265431       15.9033822148       14.3239601904
  O        32.7435361095       16.2701424318       14.4919356765
  O        30.6309602859       19.2008015451        1.4941907807
  O        28.8829710699       18.3977982006       14.3298444291
  O        39.4570574270       35.2442640419        4.0019629084
  O        19.1431695257        0.0052614183       11.9903902964
  O        41.9697532872       35.1729554455        4.0872452436
  O        21.6916969256       -0.0692036658       11.8961388822
  O        51.3651409614       18.6142723361        4.0053860068
  O        10.7511386431       18.7471522985       11.9049448658
  O        50.0794265686       16.4127485326        4.0917239579
  O         9.5248612713       16.4830348975       11.9911780794
 Zr         9.2980800369       16.0525504430        6.1825724729
 Zr        49.8375697149       16.0067359886        9.7463155488
 Zr        22.0733312559        0.0307774750        6.1889536279
 Zr        42.4612157515       35.1542695978        9.8011549097
 Zr        29.6134112179       19.0672814773        6.2261261966
 Zr        29.5948115702       19.1863057979        9.8332627309
 Zr        11.0392618708       19.0516089110        9.8279055062
 Zr        11.0451268425       19.1545301931        6.2507117367
 Zr        31.3752607688       16.1273748709        9.8302236902
 Zr        31.3919159560       16.0166046609        6.2314388137
 Zr        18.6016417095       -0.0004856849        9.7634602488
 Zr        18.5068612913       -0.0065705226        6.2140454471
 Zr        12.3039130510       16.3237478495        7.9902531834
 Zr        48.6178606112       18.8332175455        8.0098155502
 Zr        20.3166405700        2.4752325235        7.9912514892
 Zr        40.6440352616       32.6878656785        7.9782420576
 Zr        28.3426978062       16.3485077039        8.0818206304
 Zr        32.6360135778       18.8466647787        8.0016634340
  H        32.3900937133       16.3790844501       13.5623768272
  H        28.5329496072       17.2570557252        1.6319842716
