     576
 i =       53, E =     -4780.0903405859
  C        11.8587751607       14.0535076884        5.7415775192
  C        12.4563026669       12.8905726745        5.0232780218
  C        11.7045208539       12.1713076163        4.0819375377
  C        12.2809519600       11.1091047507        3.3896219361
  C        13.6216740536       10.7396445519        3.6170606856
  C        14.3549655518       11.4435907732        4.5901582248
  C        13.7820200762       12.5085684996        5.2816338289
  C        14.2612185619        9.6489563378        2.8436618456
  C        14.2563591566        9.6567752947        1.4219587548
  C        13.7430637133       10.7588654737        0.6680977523
  C        49.1269426540       21.2331135025        5.8796969161
  C        48.5501991060       22.4011456030        5.1526571223
  C        49.3002223784       23.0684337023        4.1716502873
  C        48.7332942562       24.1075812915        3.4384420698
  C        47.4027805900       24.5092565413        3.6671168236
  C        46.6718513261       23.8604448764        4.6806829977
  C        47.2342993613       22.8155371839        5.4100295423
  C        46.7725001307       25.5869448839        2.8698576027
  C        46.7613605252       25.5573191492        1.4480968933
  C        47.2612698112       24.4422244559        0.7045884689
  C        14.8602749777        8.5704352592        0.7086660815
  C        14.8921656563        8.5970914550        3.5202816503
  C        49.1132571691       21.2033922232       10.1453396487
  C        48.5278783005       22.3648284099       10.8725067367
  C        49.2671108076       23.0254900813       11.8654409288
  C        48.6908171790       24.0600558571       12.5969375481
  C        47.3604309177       24.4568944366       12.3586952670
  C        46.6400282698       23.8120719932       11.3351101622
  C        47.2135425751       22.7761448510       10.6033148746
  C        46.7219747704       25.5318632367       13.1497446079
  C        46.7335729578       25.5281648193       14.5714553339
  C        47.2490014965       24.4289393993       15.3278259507
  C        40.6204690709       17.1367857212       15.3101908596
  C        40.6310471408       17.1415479247       12.5000190677
  C        11.8830228504       14.0865870397       10.2855246391
  C        12.4723651053       12.9108500315       10.9898363286
  C        11.7147346549       12.1774453735       11.9156958076
  C        12.2813170414       11.0949905030       12.5841175997
  C        13.6202449671       10.7214882672       12.3525545899
  C        14.3583783459       11.4373120033       11.3920712125
  C        13.7929607958       12.5184938396       10.7193799037
  C        14.2537717684        9.6246312126       13.1229010365
  C        14.2524249327        9.6444746061       14.5447414472
  C        13.7424892741       10.7533709217       15.2918457619
  C        22.5110582601        3.2451413043        5.7496384695
  C        23.2227858403        4.3489808673        5.0431991347
  C        24.2177862495        4.0658397603        4.0955215945
  C        24.8460384257        5.1025866346        3.4098600642
  C        24.4958654474        6.4462122950        3.6506560224
  C        23.5269264324        6.7207268521        4.6334385941
  C        22.8941558281        5.6857827358        5.3177866752
  C        25.1097012639        7.5512002210        2.8773726986
  C        25.0952839376        7.5445470399        1.4551584490
  C        24.3976811107        6.5477149598        0.7015972141
  C        38.3035052370       31.9291858494        5.8485846721
  C        37.5761774738       30.8381606558        5.1382082231
  C        36.6185059808       31.1394108067        4.1578650998
  C        36.0043101423       30.1172413628        3.4393871930
  C        36.3327500685       28.7687324213        3.6801654368
  C        37.2607914140       28.4749440812        4.6968654612
  C        37.8793308014       29.4958199471        5.4137989099
  C        35.7331223197       27.6751912335        2.8830036859
  C        35.7669499426       27.6888422175        1.4616757205
  C        36.4735392053       28.6908967521        0.7245632940
  C        25.7276475767        8.6131427046        0.7410147318
  C        25.7052526670        8.6242028698        3.5533657798
  C        38.3291015911       31.9621444606       10.1559992146
  C        37.6086834244       30.8876615332       10.8974799025
  C        36.6814613162       31.1941338802       11.9050809443
  C        36.0738006401       30.1738698710       12.6342968283
  C        36.3791677193       28.8220264012       12.3789625071
  C        37.2836546983       28.5255209456       11.3410699614
  C        37.8935318246       29.5422337602       10.6133450573
  C        35.7741549517       27.7210889169       13.1627912724
  C        35.7878282561       27.7124557760       14.5846938676
  C        36.4830425130       28.7025000920       15.3478063191
  C        46.1355690191       26.6208062268       15.2816088298
  C        46.0880884849       26.5802769207       12.4737143590
  C        22.4691035199        3.2583726648       10.2570348838
  C        23.1799078760        4.3656807308       10.9708382812
  C        24.1875434606        4.0755402524       11.9052296507
  C        24.8303648237        5.1023934668       12.5939099075
  C        24.4879002135        6.4519222880       12.3731294740
  C        23.5046368488        6.7352411170       11.4058062983
  C        22.8572941385        5.7085522914       10.7170798089
  C        25.1261728911        7.5466855787       13.1509289064
  C        25.1045869564        7.5415757271       14.5744501649
  C        24.3997813036        6.5476320374       15.3246088163
  C        26.6231758589       17.8637216841        5.7828026156
  C        25.3166070660       17.9066822852        5.0571587129
  C        25.0594553182       18.8988261535        4.0976712800
  C        23.8464715354       18.9184125037        3.4115839370
  C        22.8534763476       17.9495865702        3.6630011932
  C        23.1074563133       16.9798464277        4.6514258825
  C        24.3225372001       16.9542625054        5.3346043974
  C        21.5797178492       17.9349329662        2.8992245073
  C        21.5795632409       17.9117115927        1.4765859657
  C        22.7848006466       17.7847686962        0.7160574256
  C        34.4352019193       17.1964514398        5.9170640603
  C        35.7254088597       17.1535783451        5.1683215742
  C        35.9256640267       16.1996073824        4.1583327173
  C        37.1066885715       16.1923865982        3.4213289331
  C        38.1206863485       17.1369634760        3.6746341022
  C        37.9224464074       18.0714691277        4.7090137575
  C        36.7383119698       18.0850718912        5.4424975067
  C        39.3750771373       17.1496170834        2.8879899774
  C        39.3684288672       17.1678660803        1.4661652488
  C        38.1609150724       17.2984045383        0.7105309959
  C        20.3327569525       17.9310396759        0.7682359125
  C        20.3548668471       17.9389437113        3.5816971998
  C        34.4223679518       17.2164273071       10.2236673553
  C        35.7295536371       17.1373403727       10.9343085517
  C        35.9456987919       16.1735820251       11.9306741135
  C        37.1415195480       16.1583105780       12.6431919652
  C        38.1493908488       17.1069333809       12.3806442400
  C        37.9396041101       18.0428010248       11.3503448945
  C        36.7431103421       18.0624648373       10.6393842680
  C        39.4013906569       17.1352313068       13.1685098848
  C        39.3816656043       17.1607740848       14.5897688855
  C        38.1667076879       17.2932086615       15.3337751140
  C        35.1586664219       26.6325355737       15.2885023637
  C        35.1824953330       26.6514182907       12.4794590073
  C        26.5707586544       17.8277190717       10.3243315191
  C        25.2563064053       17.8742657210       11.0296361174
  C        24.9958995017       18.8745310629       11.9785630474
  C        23.7784462913       18.8999746706       12.6528702865
  C        22.7921212638       17.9250167725       12.4023233199
  C        23.0468354186       16.9501875116       11.4206290063
  C        24.2649387347       16.9226234880       10.7443801897
  C        21.5290941430       17.9058268390       13.1761803962
  C        21.5535530701       17.8955059592       14.5978610905
  C        22.7719059870       17.7770429935       15.3395509239
  C        14.0470010718       17.8289852389       10.2890730336
  C        15.3512245152       17.8863115719       11.0145501849
  C        15.6070939949       18.8887295505       11.9633240303
  C        16.8159090935       18.9097765841       12.6565346985
  C        17.8035327676       17.9312992158       12.4234142691
  C        17.5523974436       16.9532568037       11.4424298057
  C        16.3430506377       16.9275536477       10.7507564576
  C        19.0727256625       17.9143864719       13.1924558873
  C        19.0719595109       17.9114788753       14.6150484361
  C        17.8652177063       17.8133205437       15.3767631416
  C        46.8026779843       17.2178572356       10.1573411882
  C        45.5092149614       17.1539907874       10.8985267891
  C        45.2996670934       16.1755704634       11.8827425720
  C        44.1154589180       16.1570104305       12.6153130927
  C        43.1102111890       17.1168897781       12.3861240663
  C        43.3162258356       18.0736143090       11.3737966057
  C        44.5012002433       18.0961666809       10.6423006872
  C        41.8569999492       17.1318392736       13.1759621877
  C        41.8656082141       17.1408127744       14.5982260419
  C        43.0762099038       17.2352303041       15.3545547835
  C        20.3190096384       17.9217746813       15.3230660711
  C        20.2967702578       17.8950435724       12.5099711959
  C        46.7852013340       17.2330679954        5.8862936278
  C        45.4830621357       17.1325421157        5.1663843375
  C        45.2631967251       16.1386646500        4.2005514493
  C        44.0755633148       16.1169644060        3.4728627336
  C        43.0775964587       17.0862621626        3.6933184219
  C        43.2883711338       18.0505011119        4.6967604681
  C        44.4769024091       18.0785234236        5.4195473051
  C        41.8300196375       17.1134069637        2.8975133352
  C        41.8521046865       17.1302779820        1.4762199846
  C        43.0698256505       17.2275582960        0.7316635766
  C        46.1533464941       26.6372230162        0.7263775656
  C        46.1626673740       26.6561038406        3.5360240488
  C        14.0462949135       17.8320460859        5.7087771140
  C        15.3677835195       17.9069952698        5.0190674890
  C        15.6414026184       18.9219595441        4.0899198784
  C        16.8707645499       18.9595288514        3.4356315967
  C        17.8547317849       17.9812948901        3.6842325835
  C        17.5880682477       16.9956463384        4.6520166327
  C        16.3607400777       16.9575172844        5.3098662353
  C        19.1221663425       17.9561082534        2.9150439137
  C        19.0977899379       17.9315195119        1.4934577003
  C        17.8778278162       17.8222234660        0.7529985545
  C        28.8173067643       14.1420133473       10.4085749272
  C        28.2391762819       12.9547430560       11.1015680614
  C        28.9658441368       12.2256581033       12.0548295680
  C        28.3811842727       11.1340214162       12.6951511744
  C        27.0554455216       10.7463937284       12.4092335322
  C        26.3529764769       11.4565874801       11.4186939242
  C        26.9343278130       12.5457465731       10.7764600928
  C        26.3884398260        9.6571015167       13.1619983464
  C        26.3578373282        9.6843498902       14.5831977723
  C        26.8485393116       10.7993013919       15.3343999379
  C        32.1803914587       21.2359867847       10.1452169393
  C        32.7765706240       22.4020034338       10.8620105549
  C        32.0322164142       23.0766002549       11.8421432476
  C        32.6054191469       24.1149537145       12.5698322050
  C        33.9383309303       24.5064740548       12.3385626700
  C        34.6646259085       23.8508795057       11.3265167163
  C        34.0940159265       22.8072015575       10.6004655566
  C        34.5699471629       25.5802319227       13.1388763855
  C        34.5657009201       25.5495464080       14.5604810628
  C        34.0584308325       24.4336623233       15.2984121582
  C        25.7379559401        8.6074305099       15.2956100729
  C        25.7555216233        8.6063535739       12.4821166406
  C        32.1042593499       21.2217350440        5.8775483630
  C        32.6966010132       22.3701314743        5.1303058340
  C        31.9646246166       23.0318796706        4.1321687928
  C        32.5480643211       24.0609504518        3.3964025257
  C        33.8770004887       24.4593521433        3.6414530442
  C        34.5916609002       23.8109820183        4.6668693441
  C        34.0134220772       22.7760042460        5.3970555440
  C        34.5197943529       25.5403905326        2.8589905670
  C        34.5391594245       25.5296692128        1.4373000123
  C        34.0447930294       24.4247522333        0.6751422210
  C        40.6133048059       17.1359017728        0.7550178771
  C        40.6001578465       17.1393992249        3.5650678179
  C        28.7478237814       14.0668180874        5.8190668084
  C        28.1395407244       12.9185116945        5.0815144745
  C        28.8762522487       12.2231086627        4.1104434982
  C        28.2973905411       11.1652116759        3.4130224857
  C        26.9649376318       10.7762279426        3.6592329850
  C        26.2453429720       11.4595064551        4.6575788442
  C        26.8229015037       12.5173878329        5.3576537446
  C        26.3248714946        9.6866553957        2.8822078785
  C        26.3253234450        9.7002440548        1.4600207625
  C        26.8309132409       10.8082765127        0.7102023600
  C        18.1354628947        3.1811453596       10.3170670109
  C        17.4059810012        4.2783290237       11.0154150640
  C        16.3901642620        3.9999117162       11.9428441802
  C        15.7424292706        5.0398394730       12.6063943965
  C        16.0943669188        6.3835970522       12.3668668145
  C        17.0836857053        6.6531765509       11.4030378368
  C        17.7328370218        5.6158924744       10.7379418394
  C        15.4701007623        7.4912372472       13.1300633235
  C        15.4853331926        7.4904216725       14.5517919183
  C        16.1868823716        6.4967785288       15.3049366243
  C        42.9460002605       31.8596266345       10.0729118569
  C        43.6464643132       30.7719638142       10.8168129816
  C        44.5918712861       31.0933043306       11.8029968146
  C        45.1975861700       30.0877754458       12.5506897489
  C        44.8713140243       28.7346843452       12.3357529783
  C        43.9457079912       28.4203290348       11.3223336031
  C        43.3368826762       29.4254460839       10.5742713538
  C        45.4888322774       27.6553790166       13.1389895458
  C        45.4929148739       27.6809714339       14.5606901027
  C        44.8058836572       28.6890327288       15.3073524892
  C        14.8564290427        8.5629165065       15.2642256604
  C        14.8749537173        8.5631328896       12.4515418106
  C        42.9466334444       31.9616931524        5.8090896865
  C        43.6920727724       30.8855702653        5.0958024881
  C        44.6565538356       31.1914639932        4.1233816349
  C        45.2780825178       30.1718737777        3.4056527063
  C        44.9544457230       28.8215344206        3.6433828075
  C        44.0212705386       28.5238871885        4.6544670304
  C        43.3930000113       29.5406486060        5.3666438308
  C        45.5633242640       27.7241170733        2.8580249634
  C        45.5334740493       27.7174183526        1.4367158180
  C        44.8271806868       28.7076687838        0.6837532226
  C        35.1467656547       26.6214270418        0.7334136335
  C        35.1278824700       26.5997921270        3.5432224199
  C        18.1489163546        3.2470930448        5.7067833913
  C        17.4303789751        4.3439229429        4.9975109157
  C        16.4150699232        4.0526334996        4.0740321983
  C        15.7667706118        5.0832289310        3.3985964389
  C        16.1215154396        6.4284807974        3.6211448749
  C        17.1129980046        6.7118876013        4.5783016460
  C        17.7606738512        5.6830090036        5.2581302532
  C        15.4909212194        7.5241180018        2.8486727804
  C        15.4965841707        7.5073657770        1.4275284954
  C        16.1932262196        6.5056260425        0.6807593855
  H        10.6722742879       12.4651523242        3.9051390996
  H        11.6946023026       10.5503642985        2.6633315522
  H        15.3921607005       11.1694002544        4.7715715459
  H        14.3516405424       13.0721285349        6.0166915500
  H        13.3760461090       11.6309617330        1.2014527220
  H        50.3229273919       22.7483782388        3.9869019495
  H        49.3197996674       24.6228375929        2.6808713155
  H        45.6424009771       24.1613132697        4.8639230465
  H        46.6633566170       22.2903366178        6.1722006121
  H        47.6298712141       23.5758733957        1.2462757668
  H        14.8727352087        8.5884563887        4.6085935262
  H        50.2871544293       22.7026078524       12.0603314169
  H        49.2692699545       24.5754821326       13.3604173840
  H        45.6106686728       24.1094250300       11.1459870051
  H        46.6527439263       22.2540332743        9.8317011922
  H        47.6078524684       23.5518587634       14.7969120067
  H        40.6345251454       17.0989133166       11.4124854694
  H        48.6869775377       14.0951672553        7.7999524474
  H        10.6811679560       12.4663168210       12.0928566869
  H        11.6894463383       10.5244005304       13.2965917044
  H        15.3939463013       11.1597220294       11.2064495053
  H        14.3654820147       13.0881174751        9.9911895050
  H        13.3756498104       11.6219927198       14.7532291155
  H        47.9301456499       14.2187167352        9.7110094032
  H        47.7800025145       14.3737839436        6.4951334121
  H        49.0833897549       18.5521595096       10.8672399171
  H        10.4160312564       14.1343585383        7.9988319453
  H        24.4778786652        3.0265519730        3.9073146120
  H        25.6189353380        4.8810692532        2.6770525834
  H        23.2476274066        7.7544791809        4.8263353859
  H        22.1252283608        5.8902055341        6.0588763197
  H        23.8289762299        5.7923897782        1.2362320113
  H        36.3804110721       32.1820676659        3.9610005047
  H        35.2613698455       30.3543268356        2.6810212180
  H        37.5221516160       27.4364943615        4.8896410666
  H        38.6217038525       29.2770530969        6.1776603674
  H        37.0389660667       29.4403001179        1.2707781417
  H        25.7321966043        8.6057019076        4.6414025977
  H        36.4580881690       32.2378619134       12.1143318882
  H        35.3494476769       30.4168043656       13.4085886124
  H        37.5311067537       27.4858179623       11.1373130400
  H        38.6147538577       29.3186401473        9.8310686083
  H        37.0567985817       29.4604395395       14.8222662314
  H        46.1096407160       26.5877425088       11.3856823180
  H        44.6682879849       35.1161651824        7.8139563768
  H        24.4577300574        3.0356794770       12.0749723131
  H        25.6129532233        4.8666337504       13.3120190610
  H        23.2262841339        7.7712981632       11.2235798906
  H        22.0826592509        5.9284689442        9.9859214757
  H        23.8322481910        5.7928667881       14.7880460944
  H        44.9537960446       34.3904749611        9.6952706784
  H        44.9015514846       34.2068859564        6.4905387350
  H        40.6662093059       33.2094755583       10.8532890149
  H        23.1510842018        1.9581400086        8.0041741410
  H        25.8217428962       19.6507958118        3.9062885802
  H        23.6528866548       19.6940200061        2.6736385787
  H        22.3532899820       16.2221944452        4.8544815969
  H        24.5287193736       16.1913322345        6.0816653098
  H        23.7260327276       17.6620897223        1.2442001366
  H        35.1394078717       15.4754431564        3.9589627023
  H        37.2598918617       15.4446528793        2.6462637742
  H        38.6964901700       18.8095087334        4.9092132190
  H        36.5694777690       18.8213836212        6.2248764959
  H        37.2235601592       17.4313652991        1.2429385861
  H        20.3619149288       17.9802945428        4.6695204131
  H        35.1598667286       15.4526873202       12.1437802489
  H        37.3074726587       15.4081255573       13.4131620333
  H        38.7111739926       18.7810461544       11.1417445193
  H        36.5603741360       18.8030532060        9.8643867001
  H        37.2333341555       17.4221239205       14.7932307916
  H        35.1514492196       26.6796211226       11.3919090479
  H        28.4984571069       21.0798565723        7.8938873594
  H        25.7604627270       19.6237592394       12.1708203493
  H        23.5767500860       19.6796614232       13.3841847812
  H        22.2936223171       16.1907194652       11.2210497445
  H        24.4772249887       16.1579979509       10.0009640355
  H        23.7031850494       17.6487343205       14.7959317083
  H        29.0071307158       21.7230767260        9.7408689542
  H        29.1898142919       21.7250041794        6.5767672933
  H        32.0793605454       18.5843074187       10.9906496794
  H        27.4034320644       19.0709068590        8.0807607645
  H        14.8481699181       19.6471284432       12.1422030133
  H        17.0103096545       19.6935404101       13.3855465889
  H        18.3043082859       16.1898861534       11.2530487841
  H        16.1381141449       16.1589845743       10.0092820126
  H        16.9224444705       17.6979853988       14.8499251363
  H        46.0821560905       15.4433119615       12.0675954497
  H        43.9549026790       15.3910371315       13.3708592262
  H        42.5485522010       18.8228336066       11.1915784809
  H        44.6762115281       18.8500611799        9.8783068527
  H        44.0173047299       17.3441184397       14.8230891572
  H        20.2904322975       17.9256953279       11.4218568083
  H        46.0383576270       15.3968847280        4.0219185655
  H        43.9083796263       15.3448277058        2.7250162463
  H        42.5235628071       18.8037948717        4.8739499190
  H        44.6599763709       18.8420411063        6.1716015399
  H        44.0061542533       17.3295575567        1.2727019859
  H        46.1997027301       26.6826876391        4.6234624198
  H        52.7413020159       21.0626773717        8.1947052736
  H        14.8807401235       19.6752631661        3.8970162387
  H        17.0815913941       19.7496525863        2.7181518948
  H        18.3388954587       16.2340059513        4.8522273935
  H        16.1400557984       16.1833295659        6.0407066691
  H        16.9444833029       17.7137389775        1.2972102404
  H        52.3228791738       21.6733602841        6.2940679095
  H        52.0135785471       21.7023376982        9.4956692961
  H        49.0680373127       18.6077802499        5.2037798810
  H        13.2477508530       19.0160155845        7.9773888643
  H        29.9871217460       12.5241561522       12.2812897637
  H        28.9484742447       10.5693472980       13.4319123765
  H        25.3288338685       11.1704755397       11.1881623218
  H        26.3859163527       13.1120894277       10.0280789633
  H        27.2133209744       11.6701120712       14.7983169891
  H        31.0087165720       22.7610094476       12.0296194645
  H        32.0230744847       24.6370807816       13.3258760891
  H        35.6961027457       24.1441994690       11.1421536375
  H        34.6605835216       22.2757141160        9.8393309306
  H        33.7022019689       23.5654438111       14.7514438176
  H        25.7953145573        8.5875958761       11.3943188618
  H        30.9397745315       22.7226264411        3.9401659072
  H        31.9733621196       24.5751424725        2.6290604279
  H        35.6202975025       24.1073833230        4.8617040399
  H        34.5705233797       22.2534712137        6.1711831928
  H        33.6779724375       23.5495208904        1.2035684617
  H        40.5953393175       17.0970253023        4.6525851868
  H        32.5046891972       14.1569688369        8.2598247475
  H        29.9033566745       12.5256884918        3.9194944222
  H        28.8774749488       10.6227704998        2.6695859711
  H        25.2142006542       11.1737041186        4.8551650197
  H        26.2626882376       13.0603415140        6.1152003727
  H        27.1814948290       11.6854184626        1.2462312955
  H        33.3074491571       14.2301508388        6.4648252859
  H        33.4047195402       14.3857061979        9.6114410870
  H        32.0968961936       18.4926724132        5.1567927234
  H        30.2108454345       14.1932985363        8.0836853927
  H        16.1180658801        2.9634096257       12.1291816148
  H        14.9529457210        4.8204174292       13.3220034864
  H        17.3661212936        7.6860599473       11.2099637589
  H        18.5149499400        5.8186682506       10.0102081596
  H        16.7534115544        5.7394338529       14.7714117571
  H        44.8280832368       32.1403943637       11.9772422167
  H        45.9373975203       30.3415754008       13.3066738559
  H        43.6832527706       27.3782293833       11.1520399597
  H        42.6004789152       29.1900728693        9.8094173745
  H        44.2306225165       29.4368819654       14.7690611797
  H        14.8513026546        8.5465420770       11.3633166667
  H        44.9000235765       32.2341453503        3.9318257080
  H        46.0249075467       30.4131266055        2.6523411934
  H        43.7646012113       27.4841348915        4.8462949619
  H        42.6467499495       29.3178485097        6.1253304586
  H        44.2687876509       29.4706397985        1.2183401713
  H        35.0827972875       26.6134873257        4.6305880817
  H        36.6052009818       35.1341082140        8.1806187913
  H        16.1438639991        3.0130706373        3.9044470414
  H        14.9743497493        4.8563679295        2.6886257387
  H        17.3966132015        7.7473486514        4.7550683820
  H        18.5436406037        5.8935544582        5.9827710708
  H        16.7647444309        5.7554062862        1.2191371355
  H        36.2788570846       34.4825303926        6.2730082043
  H        36.3809079930       34.2092486234        9.4996911835
  H        40.5808459991       33.2033358245        5.1534188729
  H        17.4715300912        1.9478403563        7.9743014109
  H        29.0756531493       19.4111346566       12.5418698954
  H        29.7090170880       19.6493096392        3.5788363274
  H        31.7309573333       15.7985952383        3.5276162731
  H        31.0436233936       15.6538840687       12.5980990928
  H        28.1057167092       17.8908712467       14.8259731831
  H        29.3967458089       15.6753562850       14.9099591624
  H        31.4335535359       19.8570526731        1.5147595718
  H        32.9532523137       17.5895875079        1.4689000446
  H        28.3595582027       17.7894930819        2.1231911381
  H        32.2399889009       18.2820849298       14.7042115474
  H        18.8530373348        0.8689236088       12.3351985448
  H        40.5278970702       35.2287546040        3.9518538900
  H        42.3247600719       34.4191841928        3.5901634757
  H        22.0876546840        0.6920653029       12.3518882238
  H        11.5969445979       18.7127399132       12.3824361376
  H        52.2653055065       18.4313048219        3.6775524771
  H        49.2554158550       16.4767279125        3.5843569647
  H        10.1501853179       15.7982035505       12.2926385640
  H        50.8504602428       17.6924981659        3.9541681744
  H        10.0461054188       17.3946155703       12.0519201413
  H        20.2141493609        0.0021867920       12.0421092359
  H        39.1837080784       36.1245549878        3.6865616545
 Ni        31.0323614767       17.9094221474        2.9159387017
 Ni        31.2425433276       16.5644321865        0.1656596336
 Ni        29.7622086726       18.8466590094        0.1657623281
 Ni        30.0120926742       17.5185671966       13.4049949456
  O        10.6499305305       14.3650927038        5.4858457480
  O        12.6131821097       14.6575140871        6.5838944110
  O        49.1477944638       16.8458392998        7.9897305066
  O        50.3503022900       20.9357500603        5.6480163400
  O        48.3485572570       20.5933006905        6.6659204651
  O        11.0517148858       17.0537448000        6.5007434225
  O        50.3209990649       20.8816662591       10.4068492487
  O        48.3467182580       20.5867525773        9.3271267374
  O        49.5436697030       18.2483536190       10.0682223091
  O        12.3591123803       18.6245947784        7.9997128407
  O        48.6931844816       14.1486784947        6.7512535185
  O         8.2098282237       14.2105337009        9.3226198140
  O        10.7353340963       14.5067472936       10.6643120990
  O        12.5718122861       14.5828299945        9.3284965386
  O        22.8446350369        2.0433983017        5.4867778255
  O        21.6066880078        3.5930701195        6.5887359549
  O        42.0583465571       34.1377778534        7.9791849831
  O        37.9817817157       33.1371627152        5.5722802057
  O        39.2183935981       31.5761450910        6.6668915249
  O        20.3086640751        1.0403670369        6.5025368697
  O        38.0245781723       33.1855643075       10.4152700000
  O        39.2194015700       31.5839386771        9.3261828590
  O        40.6523252019       33.7695845244       10.0602764394
  O        18.2559667582        1.3763081918        7.9968573961
  O        44.6221407049       35.1006343307        6.7587960698
  O        24.2053677126        0.0000703812        9.3208177239
  O        22.7539097207        2.0587642553       10.5850102522
  O        21.6268613489        3.5986984746        9.3472234416
  O        27.4981177931       18.7536312523        5.4979754409
  O        26.7652093196       16.9348758433        6.6544465071
  O        30.6600704946       19.4041690117        8.0673625534
  O        33.5832391839       16.2750907446        5.6670861298
  O        34.2718522098       18.1661610179        6.7380418597
  O        29.5720057959       17.0627656913        6.5770098578
  O        33.5362075484       16.3314247768       10.4993096073
  O        34.2666013016       18.1790875839        9.4048314313
  O        31.6469848670       18.3182020363       10.1626998241
  O        30.3189208997       15.1585380998        8.0918590376
  O        28.5528745135       21.0345693680        6.8392184507
  O        28.5144996525       20.9540799487        9.4070331230
  O        27.4572736648       18.6800968090       10.6580562994
  O        26.6948834366       16.9287000136        9.4131414369
  O        13.1487106196       18.6929246084       10.5874466182
  O        13.9195297903       16.9163321784        9.4052031634
  O        50.5962006013       19.3501498062        8.0204265085
  O        47.6815495348       16.3273817914       10.4176046714
  O        46.9511515402       18.1759957256        9.3247316239
  O        11.0697781010       17.0154793808        9.4895907391
  O        47.6749396511       16.3360168031        5.6523310138
  O        46.9265678523       18.2359302285        6.6640950032
  O        49.5686715284       18.3176499659        5.9822840970
  O        10.3186396678       15.1002054673        7.9971123719
  O        52.6707791277       21.0278712673        9.2418166221
  O        12.1468421364       20.8911634502        6.6732629645
  O        13.1084137703       18.6136007906        5.3255921085
  O        13.9573995695       16.9871327642        6.6653089230
  O        29.9862063189       14.5585486241       10.7485680539
  O        28.0902464557       14.6563660399        9.4946663280
  O        32.0741814939       16.8581111860        8.0872255077
  O        30.9652137092       20.9492325993       10.4109705989
  O        32.9473501924       20.5964304852        9.3383440532
  O        29.5633858414       17.0837742165        9.5765328985
  O        30.8717079632       20.9399299659        5.6580574739
  O        32.8763569830       20.5860217555        6.6666125490
  O        31.6833881797       18.2522427800        6.0057865050
  O        28.2913242888       18.6775493423        8.0771204588
  O        32.4866160748       14.2180518355        9.3333288063
  O        32.4040031039       14.2176797879        6.8231890444
  O        29.9210395139       14.4389500666        5.4922597601
  O        28.0398713659       14.5892588170        6.7525289201
  O        17.8893541135        1.9667341982       10.6627572886
  O        18.9565094540        3.5272059824        9.4079629350
  O        39.1686498729       34.1388774311        7.9972263146
  O        43.2802018683       33.0590466614       10.3317528946
  O        42.0345978616       31.5064666745        9.2416466044
  O        20.3180263356        1.0371652588        9.4799647558
  O        43.2760727095       33.1826702216        5.5749183260
  O        42.0052961484       31.5841139685        6.5829631422
  O        40.5790132880       33.7751907348        5.9361315355
  O        22.3676173643        1.3853179311        7.9982200765
  O        36.6728437563       35.0998220902        9.2332745267
  O        16.4457566109        0.0643050098        6.6682768526
  O        17.9365925349        2.0434368983        5.3264970947
  O        18.9194277445        3.5930960427        6.6661143920
  O        29.8258386037       18.8223744493        4.0845557442
  O        29.7787842325       18.9077037998       12.0872937878
  O        31.2244227090       16.4174621288        4.0853361838
  O        31.2247781973       16.5427760565       12.2322182182
  O        32.2242431474       16.9981695368        1.7307402530
  O        28.4589194870       17.5201092674        1.1849551230
  O        30.2534323770       16.0481703081       14.6439405076
  O        32.6189553409       17.3775799281       14.7549952369
  O        30.6332473120       19.3567336018        1.7456834229
  O        28.8455368019       18.4718790931       14.5651465044
  O        39.4566887712       35.2438380484        4.0020391630
  O        19.1409645110        0.0044112313       11.9905498210
  O        41.9692832592       35.1722584001        4.0871993705
  O        21.6912953206       -0.0692704333       11.8960118073
  O        51.3653470160       18.6143292613        4.0054421981
  O        10.7511069675       18.7471405959       11.9049373040
  O        50.0797768662       16.4127877507        4.0917538642
  O         9.5243321264       16.4831152148       11.9911794460
 Zr         9.2973062665       16.0527628562        6.1824205493
 Zr        49.8366439030       16.0068199926        9.7464300416
 Zr        22.0732267193        0.0305164032        6.1890533033
 Zr        42.4611713527       35.1543156236        9.8015056284
 Zr        29.6098560462       19.0792712697        6.2810962172
 Zr        29.5677492597       19.1776886697        9.8863653491
 Zr        11.0385081378       19.0518434770        9.8278266334
 Zr        11.0444873388       19.1546705285        6.2509682257
 Zr        31.3338849440       16.1300607994        9.9015084486
 Zr        31.3799855644       16.0110202555        6.2708147472
 Zr        18.6013924339       -0.0008565538        9.7630796692
 Zr        18.5068350971       -0.0069582504        6.2139355451
 Zr        12.3028950737       16.3236048723        7.9903255326
 Zr        48.6168291349       18.8330314279        8.0102553352
 Zr        20.3168431513        2.4750958547        7.9915725128
 Zr        40.6440394646       32.6875961553        7.9782919502
 Zr        28.3385452430       16.3434634902        8.0761159959
 Zr        32.6170001886       18.8344623313        8.0503011241
  H        32.3772514646       16.9954605886       13.8690144082
  H        29.1557243090       16.8000312144        1.2159178220
  H        30.6550857530       19.6965954462       -0.6021715866
  H        30.3626980931       15.7944733298        1.0419837334
