     576
 i =      216, E =     -4780.0561442339
  C        11.8587234678       14.0535990623        5.7415622808
  C        12.4562410811       12.8906286294        5.0232464302
  C        11.7043980733       12.1714995699        4.0818629089
  C        12.2807757128       11.1092904831        3.3895052594
  C        13.6214429316       10.7397070119        3.6170041329
  C        14.3547436190       11.4434816569        4.5902129889
  C        13.7818722193       12.5084605378        5.2817337934
  C        14.2609687550        9.6490149507        2.8436273964
  C        14.2561945539        9.6568635831        1.4219267287
  C        13.7429253790       10.7589483939        0.6680324051
  C        49.1268301031       21.2331409320        5.8797105242
  C        48.5500001046       22.4011210576        5.1526285619
  C        49.3001183572       23.0685640201        4.1717994970
  C        48.7331759780       24.1077056337        3.4386045167
  C        47.4025662901       24.5091676472        3.6670497497
  C        46.6714950579       23.8600709994        4.6803212354
  C        47.2339222798       22.8151424954        5.4096787811
  C        46.7722919213       25.5868816431        2.8698039093
  C        46.7612088605       25.5572701062        1.4480428104
  C        47.2611308300       24.4421515519        0.7045814257
  C        14.8602600437        8.5705847022        0.7086801522
  C        14.8918734707        8.5971463906        3.5202724816
  C        49.1131780119       21.2033540070       10.1452934990
  C        48.5277322623       22.3647281716       10.8725287141
  C        49.2670033783       23.0255442411       11.8653282723
  C        48.6906679520       24.0600587801       12.5968483278
  C        47.3602023011       24.4566737218       12.3587494940
  C        46.6396629987       23.8115866805       11.3354439088
  C        47.2132313719       22.7756990649       10.6036213155
  C        46.7217692994       25.5316899870       13.1497378547
  C        46.7334294228       25.5280558209       14.5714358158
  C        47.2488132048       24.4288280950       15.3278234590
  C        40.6186191945       17.1285352580       15.3192358435
  C        40.6336352031       17.1449273433       12.5089087016
  C        11.8829269092       14.0866721428       10.2855195300
  C        12.4722937337       12.9108840092       10.9898197394
  C        11.7146428946       12.1774075208       11.9156006112
  C        12.2812096340       11.0949151478       12.5840006342
  C        13.6201504803       10.7214392634       12.3524847696
  C        14.3582750571       11.4372665384       11.3919971036
  C        13.7928545248       12.5184606591       10.7193313176
  C        14.2537332518        9.6246394741       13.1228732933
  C        14.2524399178        9.6445751152       14.5447198045
  C        13.7423577149       10.7534416424       15.2917762397
  C        22.5100857058        3.2444770841        5.7516457714
  C        23.2202428601        4.3502782600        5.0489135092
  C        24.2131993330        4.0715442722        4.0981812190
  C        24.8363087555        5.1120881907        3.4141623756
  C        24.4822074791        6.4534539134        3.6607732639
  C        23.5170844953        6.7235937838        4.6480446242
  C        22.8893009118        5.6849658365        5.3304699973
  C        25.0866471252        7.5611297713        2.8860289197
  C        25.0612923587        7.5555491672        1.4644513475
  C        24.3604437952        6.5572192544        0.7158033526
  C        38.3030696812       31.9302513569        5.8491457148
  C        37.5739660031       30.8405862038        5.1390608271
  C        36.6140038469       31.1443993468        4.1618080702
  C        35.9973884811       30.1239869701        3.4432146102
  C        36.3260762724       28.7751454103        3.6810300304
  C        37.2566230185       28.4786779509        4.6945461539
  C        37.8773823302       29.4978497699        5.4118353118
  C        35.7235282363       27.6834955739        2.8840945093
  C        35.7541682894       27.6984121494        1.4628290694
  C        36.4611899045       28.6999280937        0.7254831671
  C        25.6866240688        8.6255940595        0.7468046642
  C        25.6836046027        8.6347375388        3.5590434408
  C        38.3291020211       31.9623165191       10.1560862460
  C        37.6078983995       30.8885506192       10.8980822404
  C        36.6779621119       31.1967077065       11.9026647212
  C        36.0683281856       30.1777438435       12.6319754858
  C        36.3746474215       28.8255116317       12.3800076586
  C        37.2823510837       28.5271905726       11.3454677818
  C        37.8940912473       29.5427052178       10.6175116011
  C        35.7666296503       27.7263658849       13.1640478130
  C        35.7761685657       27.7203864100       14.5859970600
  C        36.4712394035       28.7107737206       15.3487666781
  C        46.1354484819       26.6207247791       15.2815415816
  C        46.0879251523       26.5800931274       12.4736697167
  C        22.4621385944        3.2566016176       10.2572028365
  C        23.1581290537        4.3663089493       10.9774568182
  C        24.1624586243        4.0822184436       11.9165887616
  C        24.7915145085        5.1137129327       12.6099016663
  C        24.4366163628        6.4594049030       12.3873419571
  C        23.4557563231        6.7367510156       11.4163047399
  C        22.8221021429        5.7055595813       10.7233664525
  C        25.0659982027        7.5584589794       13.1624312668
  C        25.0516437552        7.5535660424       14.5852293891
  C        24.3540695935        6.5573520528       15.3389178566
  C        26.6234747206       17.8625018000        5.7817437764
  C        25.3154721683       17.9095023740        5.0582301779
  C        25.0522436607       18.9120904101        4.1113583303
  C        23.8397300670       18.9333957702        3.4245398417
  C        22.8522800150       17.9560815759        3.6641495459
  C        23.1111759642       16.9762818867        4.6412223240
  C        24.3262864534       16.9490058609        5.3244420439
  C        21.5787160712       17.9434614711        2.8998733242
  C        21.5791544937       17.9252038723        1.4772629934
  C        22.7852975741       17.8052155966        0.7170696620
  C        34.4442342601       17.1906494401        5.9537379455
  C        35.7304218628       17.1366917561        5.1989214646
  C        35.9056498357       16.1999817102        4.1684601511
  C        37.0826056936       16.1873965101        3.4236877219
  C        38.1147521357       17.1095838043        3.6875843685
  C        37.9383132451       18.0277676971        4.7410950675
  C        36.7599303172       18.0467911991        5.4831901309
  C        39.3673473505       17.1202592150        2.8970855430
  C        39.3629949130       17.1468855830        1.4748680704
  C        38.1571690945       17.2824130637        0.7174743609
  C        20.3324273752       17.9418669423        0.7686008781
  C        20.3538465245       17.9437208729        3.5821421158
  C        34.4278614393       17.2147103693       10.2196872862
  C        35.7351857332       17.1382329574       10.9320968965
  C        35.9466036817       16.1789144182       11.9337320692
  C        37.1409791829       16.1634517432       12.6486685038
  C        38.1520082421       17.1084606818       12.3848354620
  C        37.9463698208       18.0405504764       11.3500227621
  C        36.7515810785       18.0596405317       10.6356651101
  C        39.4025964070       17.1358466460       13.1752717653
  C        39.3809390734       17.1557880774       14.5969273115
  C        38.1653486833       17.2847710802       15.3405767160
  C        35.1436389375       26.6425984175       15.2901951540
  C        35.1766247112       26.6555132338       12.4811089106
  C        26.5698171509       17.8287592674       10.3219817033
  C        25.2551075776       17.8759367142       11.0280897070
  C        24.9943021157       18.8801762964       11.9726493129
  C        23.7773706483       18.9077708150       12.6478216870
  C        22.7918722975       17.9307500663       12.4024326809
  C        23.0470980814       16.9513524841       11.4253961362
  C        24.2647505910       16.9218279047       10.7482308916
  C        21.5290755239       17.9139415337       13.1767090439
  C        21.5536898894       17.9081212220       14.5984155657
  C        22.7725049756       17.7965713566       15.3405317657
  C        14.0468294090       17.8290260863       10.2890974753
  C        15.3511036424       17.8869043268       11.0148549327
  C        15.6066920095       18.8905505843       11.9623781943
  C        16.8154804416       18.9128166432       12.6555965596
  C        17.8033510006       17.9343175692       12.4237436234
  C        17.5524393470       16.9548285840       11.4441723642
  C        16.3430799943       16.9279684953       10.7524323321
  C        19.0726603252       17.9194028076       13.1927315090
  C        19.0719598238       17.9186547282       14.6152971804
  C        17.8652546974       17.8189489968       15.3768269333
  C        46.8025721487       17.2188388285       10.1594503099
  C        45.5108079450       17.1568723395       10.9043473016
  C        45.3035696486       16.1811364203       11.8919580566
  C        44.1205824436       16.1630493738       12.6268088537
  C        43.1130438812       17.1206815356       12.3971039987
  C        43.3173956726       18.0754633645       11.3823125833
  C        44.5011002037       18.0975284647       10.6484550140
  C        41.8589010574       17.1336806340       13.1863728597
  C        41.8649827127       17.1372648637       14.6089402779
  C        43.0741650392       17.2305998502       15.3674649290
  C        20.3189541744       17.9323396419       15.3234205610
  C        20.2967854202       17.8998521437       12.5104733309
  C        46.7837740970       17.2309001096        5.8882242915
  C        45.4796814814       17.1237183260        5.1729775937
  C        45.2632377937       16.1294210329        4.2066303573
  C        44.0743100568       16.1015113026        3.4813316773
  C        43.0709630530       17.0645815249        3.7047430157
  C        43.2777620772       18.0278834859        4.7100803859
  C        44.4679028791       18.0625682337        5.4301922875
  C        41.8235746768       17.0884587098        2.9080444011
  C        41.8472703236       17.1126495066        1.4868139698
  C        43.0656911829       17.2166024790        0.7444276742
  C        46.1532580535       26.6371888762        0.7262988338
  C        46.1624639913       26.6560408819        3.5359708907
  C        14.0459061882       17.8320736404        5.7088631746
  C        15.3672860648       17.9076550312        5.0189209267
  C        15.6402543919       18.9236684497        4.0907915426
  C        16.8695131875       18.9624304766        3.4364906299
  C        17.8538332355       17.9843985387        3.6842228085
  C        17.5876917839       16.9974162311        4.6507409525
  C        16.3604377120       16.9581508781        5.3086648902
  C        19.1212692295       17.9613022249        2.9152086119
  C        19.0973167102       17.9389126799        1.4936192231
  C        17.8775966916       17.8279259106        0.7530178013
  C        28.7917426406       14.1167773756       10.3988812214
  C        28.1910095805       12.9390978065       11.0874999874
  C        28.9148010856       12.2024216848       12.0366009893
  C        28.3199177170       11.1214191430       12.6830480960
  C        26.9871237529       10.7545285154       12.4063455784
  C        26.2858432119       11.4721289612       11.4205838403
  C        26.8785066684       12.5515616512       10.7713041297
  C        26.3183846823        9.6719017743       13.1646257584
  C        26.2992200168        9.6989610117       14.5857324954
  C        26.7996780062       10.8118710269       15.3336308864
  C        32.1806749737       21.2382397140       10.1434185513
  C        32.7752718943       22.4050342574       10.8616924956
  C        32.0240399000       23.0886500324       11.8303631621
  C        32.5944111160       24.1277383473       12.5593892715
  C        33.9316745468       24.5112954150       12.3404430005
  C        34.6654711284       23.8467439548       11.3397560069
  C        34.0975271553       22.8020997504       10.6127554923
  C        34.5599043691       25.5870346556       13.1409593981
  C        34.5492431232       25.5601446167       14.5625317257
  C        34.0345622519       24.4480840095       15.3011827295
  C        25.6861355684        8.6211792524       15.3019958938
  C        25.6849872140        8.6202987100       12.4887668755
  C        32.1042123192       21.2267139387        5.8811772821
  C        32.6932269868       22.3798797016        5.1379916341
  C        31.9556640150       23.0463486224        4.1471717745
  C        32.5361617706       24.0757135422        3.4097277288
  C        33.8678828246       24.4693657633        3.6459761881
  C        34.5884645528       23.8167213957        4.6645490988
  C        34.0128619541       22.7814739118        5.3966075307
  C        34.5077428413       25.5506095263        2.8615275281
  C        34.5216760758       25.5419452280        1.4397502157
  C        34.0204103850       24.4398633058        0.6779631138
  C        40.6090791709       17.1197262505        0.7644507585
  C        40.5929940864       17.1070947737        3.5740237797
  C        28.7391717019       14.0646260475        5.8179386497
  C        28.1272293249       12.9194514733        5.0803039121
  C        28.8638275659       12.2136860625        4.1166232445
  C        28.2787396001       11.1607308953        3.4171712919
  C        26.9418008114       10.7854562791        3.6580487462
  C        26.2224943417       11.4772394639        4.6504809107
  C        26.8052815310       12.5320698165        5.3501866124
  C        26.2974485173        9.6972860657        2.8837128279
  C        26.2898134968        9.7118631535        1.4619807802
  C        26.7938145974       10.8189746828        0.7096773306
  C        18.1353678011        3.1811188446       10.3171994369
  C        17.4060746136        4.2782975955       11.0157430435
  C        16.3904450312        3.9999527924       11.9433855423
  C        15.7427654382        5.0399429290       12.6068884990
  C        16.0945729842        6.3836883686       12.3670918443
  C        17.0838654826        6.6531790875       11.4032166422
  C        17.7329282377        5.6158354544       10.7381510254
  C        15.4702236375        7.4913561789       13.1301444484
  C        15.4855253673        7.4906440776       14.5518570909
  C        16.1871110736        6.4970480230       15.3050269936
  C        42.9459911597       31.8595393621       10.0729085362
  C        43.6464182922       30.7718953776       10.8167987481
  C        44.5916454964       31.0932350667       11.8031636227
  C        45.1973446536       30.0876740368       12.5508104983
  C        44.8711999282       28.7345689191       12.3357202478
  C        43.9457394170       28.4202390402       11.3221544355
  C        43.3369325965       29.4253778003       10.5741107943
  C        45.4887573240       27.6552674515       13.1389147849
  C        45.4928190431       27.6808905023       14.5606099426
  C        44.8057816040       28.6889621416       15.3072532875
  C        14.8564147278        8.5630304929       15.2642501462
  C        14.8750309428        8.5631802460       12.4515470718
  C        42.9465404756       31.9616269520        5.8089593801
  C        43.6918390194       30.8855176297        5.0956024463
  C        44.6561100006       31.1914404733        4.1229787581
  C        45.2776960209       30.1718417998        3.4053334699
  C        44.9541745980       28.8214869793        3.6431825888
  C        44.0211276250       28.5238284204        4.6543919481
  C        43.3928078027       29.5405948999        5.3665133867
  C        45.5631622746       27.7240678539        2.8579332022
  C        45.5333221300       27.7173431053        1.4366289161
  C        44.8270615922       28.7076094071        0.6836513313
  C        35.1310790892       26.6323298211        0.7351307933
  C        35.1195740586       26.6080640476        3.5450269483
  C        18.1486167601        3.2471228269        5.7065533212
  C        17.4301181679        4.3439117854        4.9972625850
  C        16.4148205608        4.0526665912        4.0737630708
  C        15.7665321991        5.0833086227        3.3983950028
  C        16.1212458412        6.4285405792        3.6210892265
  C        17.1127007797        6.7118960423        4.5782723576
  C        17.7603647845        5.6829836736        5.2580324111
  C        15.4906729830        7.5242049756        2.8486854545
  C        15.4965525372        7.5075302121        1.4275622158
  C        16.1933686648        6.5058920606        0.6808386773
  H        10.6721917931       12.4654760079        3.9050161587
  H        11.6944026278       10.5506338869        2.6631648938
  H        15.3918768923       11.1691282364        4.7717085949
  H        14.3514305905       13.0719292630        6.0169016432
  H        13.3757883677       11.6310015578        1.2013746032
  H        50.3228878366       22.7486632250        3.9871944058
  H        49.3197149798       24.6231293461        2.6811789312
  H        45.6419075651       24.1606382505        4.8633198153
  H        46.6628393177       22.2896264230        6.1715424148
  H        47.6296683143       23.5757884730        1.2462893396
  H        14.8722617112        8.5884694845        4.6085754538
  H        50.2871037605       22.7027991250       12.0601035288
  H        49.2691200062       24.5756500770       13.3602055704
  H        45.6101906131       24.1086807777       11.1465166217
  H        46.6523436171       22.2533082007        9.8322471147
  H        47.6076030935       23.5517302011       14.7969077639
  H        40.6385799839       17.1051222833       11.4212666232
  H        48.6868523852       14.0950484367        7.7998839204
  H        10.6810529088       12.4662314122       12.0927605881
  H        11.6893258563       10.5243040489       13.2964558322
  H        15.3938421696       11.1596879140       11.2063612860
  H        14.3653060480       13.0880836752        9.9910884429
  H        13.3754462195       11.6220083931       14.7531137041
  H        47.9300483723       14.2182426212        9.7110005086
  H        47.7799462527       14.3732595472        6.4948623814
  H        49.0831473127       18.5521106729       10.8672376881
  H        10.4157636478       14.1344051224        7.9987693678
  H        24.4745434243        3.0333301293        3.9058911161
  H        25.6070007445        4.8959241647        2.6774808706
  H        23.2363444448        7.7561966575        4.8448266859
  H        22.1220999293        5.8840956086        6.0746840632
  H        23.7967637894        5.8008161956        1.2541039280
  H        36.3762718972       32.1875970185        3.9675180776
  H        35.2525027630       30.3625573691        2.6872371176
  H        37.5178730296       27.4396942609        4.8845449537
  H        38.6216464074       29.2776181614        6.1734391863
  H        37.0271560291       29.4490399445        1.2715404903
  H        25.7176069294        8.6160210887        4.6468599697
  H        36.4538320029       32.2407873379       12.1092972883
  H        35.3417141718       30.4220269932       13.4037213341
  H        37.5308180901       27.4871828691       11.1444890863
  H        38.6175793190       29.3177991145        9.8376849089
  H        37.0459914791       29.4677909773       14.8230089752
  H        46.1094402934       26.5874981219       11.3856381339
  H        44.6683963897       35.1162457330        7.8139228267
  H        24.4408896454        3.0443726685       12.0851132120
  H        25.5732122590        4.8857958355       13.3314373878
  H        23.1697821667        7.7708279990       11.2348626229
  H        22.0489819907        5.9176186444        9.9884325213
  H        23.7851497673        5.8014939798       14.8053373918
  H        44.9542407145       34.3907744953        9.6954425502
  H        44.9021763736       34.2070202818        6.4905442407
  H        40.6664562829       33.2093451343       10.8532541122
  H        23.1503734598        1.9582275023        8.0047615560
  H        25.8082836545       19.6736648997        3.9334089330
  H        23.6415018649       19.7168601594        2.6961851381
  H        22.3607371957       16.2125620748        4.8352131798
  H        24.5365069815       16.1785931966        6.0626832471
  H        23.7272592144       17.6881641357        1.2453421828
  H        35.1005431835       15.4997901431        3.9561894152
  H        37.2166278115       15.4520151416        2.6334174946
  H        38.7252142731       18.7497447324        4.9494859345
  H        36.6083881993       18.7715667900        6.2797964472
  H        37.2187035631       17.4124875817        1.2487253004
  H        20.3605998163       17.9814050981        4.6700998081
  H        35.1573575505       15.4626332336       12.1498609616
  H        37.3027956426       15.4158102270       13.4219749929
  H        38.7200666760       18.7761446888       11.1398391371
  H        36.5726499417       18.7969231632        9.8565392921
  H        37.2326182625       17.4159365048       14.7995593054
  H        35.1504582574       26.6805519764       11.3933529704
  H        28.4969430001       21.0808358354        7.8813487724
  H        25.7582562119       19.6313066546       12.1597204857
  H        23.5749584995       19.6910420469       13.3751054626
  H        22.2945082198       16.1901311288       11.2301477468
  H        24.4776142353       16.1539442573       10.0082779638
  H        23.7044946121       17.6725840303       14.7971856800
  H        29.0035136333       21.7267179473        9.7407285665
  H        29.2001061360       21.7155391010        6.5721520202
  H        32.1093834059       18.6005076783       10.9626178473
  H        27.4009007313       19.0710305014        8.0788312281
  H        14.8475245705       19.6489305977       12.1402648372
  H        17.0096134188       19.6975448633       13.3836303059
  H        18.3044292260       16.1912693909       11.2558661259
  H        16.1382696969       16.1583580753       10.0119888953
  H        16.9227972012       17.7019666596       14.8498014267
  H        46.0867913380       15.4497669383       12.0773231910
  H        43.9624504715       15.3981484440       13.3839463038
  H        42.5487094129       18.8234182398       11.1991150722
  H        44.6733675379       18.8498966160        9.8823005796
  H        44.0158251302       17.3440523375       14.8379474596
  H        20.2905453328       17.9275332770       11.4222819175
  H        46.0424465959       15.3926177026        4.0251396090
  H        43.9105453669       15.3296721605        2.7324198057
  H        42.5085845842       18.7759993354        4.8903021601
  H        44.6476410391       18.8261604334        6.1830252136
  H        44.0010173885       17.3183179644        1.2872129754
  H        46.1994470901       26.6825999935        4.6234152704
  H        52.7411601574       21.0626030137        8.1946746461
  H        14.8791455016       19.6767483868        3.8988356010
  H        17.0800144941       19.7533661034        2.7198302058
  H        18.3388281194       16.2358369594        4.8500062196
  H        16.1399687877       16.1831412556        6.0387060794
  H        16.9444147122       17.7177848159        1.2971479450
  H        52.3223827362       21.6732020435        6.2942697160
  H        52.0131361375       21.7019894746        9.4956090321
  H        49.0670758365       18.6073619741        5.2041571335
  H        13.2475311297       19.0161758316        7.9774124351
  H        29.9408671003       12.4897786020       12.2549342458
  H        28.8831854703       10.5490592294       13.4169158605
  H        25.2560654799       11.1993392227       11.1991760701
  H        26.3343393588       13.1259673076       10.0256982933
  H        27.1643699066       11.6812297016       14.7949762573
  H        30.9961197994       22.7808407681       12.0060543185
  H        32.0067270449       24.6572924624       13.3061235425
  H        35.7002900608       24.1341620530       11.1650008092
  H        34.6694192909       22.2638092243        9.8603491615
  H        33.6735655644       23.5818794424       14.7542377154
  H        25.7194886011        8.6006931945       11.4008723568
  H        30.9290246051       22.7396488286        3.9611554024
  H        31.9573291324       24.5936475312        2.6480418305
  H        35.6194332473       24.1097143409        4.8521199197
  H        34.5743954967       22.2544709145        6.1645667275
  H        33.6486385304       23.5670986141        1.2071020663
  H        40.5877307037       17.0584350191        4.6612639572
  H        32.5138881118       14.1498822013        8.2441446793
  H        29.8973963238       12.4996291913        3.9348117118
  H        28.8573206288       10.6104696902        2.6782824757
  H        25.1881968291       11.1998752958        4.8434932799
  H        26.2465396865       13.0826753491        6.1033048396
  H        27.1531724580       11.6934768551        1.2443007985
  H        33.2981990175       14.1987524412        6.4470882167
  H        33.4046849920       14.3743438170        9.6170677013
  H        32.1445838527       18.5419933144        5.1985743424
  H        30.2045964655       14.1846122609        8.0819248913
  H        16.1184302340        2.9634563051       12.1298815749
  H        14.9533626477        4.8205903827       13.3226102603
  H        17.3662423091        7.6860554124       11.2100239955
  H        18.5149130589        5.8185335698       10.0102605348
  H        16.7538265431        5.7398063954       14.7715571947
  H        44.8277535792       32.1403254534       11.9775334246
  H        45.9370593452       30.3414718345       13.3068887884
  H        43.6834317103       27.3781229550       11.1517136296
  H        42.6006846878       29.1899897792        9.8091102998
  H        44.2305128146       29.4368010426       14.7689581969
  H        14.8513099744        8.5464840458       11.3633227688
  H        44.8995057878       32.2341184360        3.9313349187
  H        46.0243787523       30.4130860217        2.6518759126
  H        43.7645205105       27.4840623182        4.8462644543
  H        42.6467142674       29.3177737512        6.1253478575
  H        44.2686243825       29.4705646196        1.2182168078
  H        35.0786399057       26.6200936111        4.6325569693
  H        36.6052106648       35.1341488546        8.1805665281
  H        16.1436646148        3.0131087446        3.9040664456
  H        14.9741484117        4.8565214638        2.6883638260
  H        17.3962826419        7.7473457595        4.7551160178
  H        18.5433401724        5.8934557533        5.9826810095
  H        16.7649210024        5.7557366884        1.2192597870
  H        36.2785367929       34.4827741586        6.2729916364
  H        36.3808942568       34.2091999374        9.4995187880
  H        40.5809596601       33.2030608343        5.1533559030
  H        17.4708378493        1.9477016804        7.9741547624
  H        29.0751159270       19.5049140903       12.5395635454
  H        29.9045706539       19.6765241186        3.5853594326
  H        30.8608455887       15.4913737969        3.7626328503
  H        31.0689991384       15.5428766719       12.4789627816
  H        27.9666788058       18.0116072456       14.8779376592
  H        29.2835173198       15.6402557593       14.8621732501
  H        31.4889938843       19.8832172871        1.3443011618
  H        33.1767125772       17.7003547099        1.2148301683
  H        28.1227544721       18.5687543801        2.1104021910
  H        32.5449439641       18.3177602901       14.2882510100
  H        18.8533920965        0.8690643247       12.3351432029
  H        40.5282716082       35.2291272766        3.9519466000
  H        42.3248064326       34.4196264445        3.5900451993
  H        22.0877418941        0.6921071313       12.3517949949
  H        11.5969764413       18.7128816202       12.3822634810
  H        52.2648912877       18.4310883585        3.6774876456
  H        49.2551437648       16.4768682730        3.5844505994
  H        10.1507012437       15.7981988932       12.2924577452
  H        50.8499858731       17.6924587646        3.9542208320
  H        10.0463455543       17.3945254790       12.0519067928
  H        20.2146837777        0.0023165980       12.0419818345
  H        39.1840280666       36.1248499504        3.6865727508
 Ni        30.9855132512       17.7371615053        2.7466449952
 Ni        31.1148083071       16.8456205044        0.0019811050
 Ni        29.7592346807       18.8932656862        0.0819994395
 Ni        29.8465846622       17.4286199551       13.1613511219
  O        10.6499313811       14.3651267009        5.4858215223
  O        12.6131472310       14.6575664305        6.5839073055
  O        49.1477227047       16.8458547618        7.9897749239
  O        50.3502461513       20.9358755622        5.6480874535
  O        48.3484780257       20.5933339676        6.6659049656
  O        11.0515608166       17.0538288216        6.5007189691
  O        50.3209575913       20.8817014951       10.4068284699
  O        48.3466684514       20.5867121680        9.3271180548
  O        49.5435447172       18.2483777476       10.0682473108
  O        12.3589944294       18.6245651384        7.9996942075
  O        48.6932073397       14.1486655858        6.7512476069
  O         8.2098162767       14.2105384408        9.3227287554
  O        10.7352685083       14.5067482406       10.6643350703
  O        12.5718018066       14.5828503405        9.3284994596
  O        22.8444177202        2.0433669493        5.4871218812
  O        21.6051791750        3.5920983873        6.5900437961
  O        42.0583382814       34.1376061087        7.9790599700
  O        37.9817910512       33.1382440324        5.5725199326
  O        39.2181587575       31.5762628826        6.6667402861
  O        20.3085543885        1.0397988602        6.5021859079
  O        38.0246238413       33.1857142332       10.4152417475
  O        39.2192622211       31.5838000583        9.3263389194
  O        40.6523621524       33.7694601155       10.0602485689
  O        18.2553945886        1.3763478534        7.9968112468
  O        44.6222207668       35.1005976380        6.7587680536
  O        24.2054041534        0.0000479606        9.3208119737
  O        22.7530818901        2.0582977827       10.5840774801
  O        21.6246160023        3.5962658110        9.3429626816
  O        27.4998748265       18.7515969226        5.4930300960
  O        26.7646956255       16.9351948868        6.6531230294
  O        30.6600421444       19.4063837265        8.0518649779
  O        33.5920939114       16.2683527628        5.7414749418
  O        34.2761332411       18.1824338038        6.7464616959
  O        29.5720976019       17.0639183775        6.5780773521
  O        33.5449269743       16.3302574482       10.4935056813
  O        34.2683761736       18.1825548609        9.4055638025
  O        31.6444569696       18.3173739115       10.1600490524
  O        30.3154103939       15.1494416539        8.0880193740
  O        28.5536942728       21.0329781576        6.8324355704
  O        28.5127869754       20.9572660007        9.4055251324
  O        27.4568436169       18.6797352371       10.6569218372
  O        26.6938563980       16.9289230633        9.4122570564
  O        13.1486856167       18.6929881947       10.5874618881
  O        13.9195923152       16.9163316091        9.4053265730
  O        50.5959392980       19.3500821480        8.0203913237
  O        47.6814857763       16.3275680730       10.4177830849
  O        46.9506931626       18.1758666952        9.3251780931
  O        11.0695824832       17.0154371783        9.4896792064
  O        47.6752914356       16.3358718352        5.6526771326
  O        46.9258021543       18.2356798887        6.6637222551
  O        49.5685526614       18.3176509219        5.9822878054
  O        10.3185592916       15.1002707001        7.9971482714
  O        52.6707451650       21.0278886574        9.2418168445
  O        12.1468261009       20.8911723222        6.6732551655
  O        13.1082374204       18.6136497135        5.3256009871
  O        13.9573562477       16.9871469464        6.6653113885
  O        29.9627716840       14.5045196606       10.7439281368
  O        28.0805972145       14.6566907809        9.4876523822
  O        32.0795549316       16.8629180939        8.0886341396
  O        30.9653761056       20.9510215187       10.4096224360
  O        32.9477278589       20.5977032461        9.3392992738
  O        29.5635286915       17.0811715868        9.5785674817
  O        30.8727549905       20.9420399682        5.6568479859
  O        32.8764760697       20.5870431388        6.6655596690
  O        31.6900623544       18.2481099562        6.0033350322
  O        28.2886407909       18.6776943111        8.0727018425
  O        32.4882648437       14.2147147851        9.3285380693
  O        32.4049436020       14.2083430566        6.8296451013
  O        29.9142720443       14.4352821123        5.4871426825
  O        28.0385169769       14.5881756537        6.7522061098
  O        17.8892715824        1.9666397588       10.6627839002
  O        18.9562258749        3.5271747500        9.4080138738
  O        39.1686700263       34.1388803446        7.9972083062
  O        43.2801756679       33.0589624695       10.3317664783
  O        42.0345274938       31.5065072722        9.2416157887
  O        20.3177443447        1.0368837640        9.4801791331
  O        43.2760458713       33.1825945450        5.5748647280
  O        42.0052887559       31.5841322500        6.5830032844
  O        40.5790272584       33.7751338534        5.9359015570
  O        22.3674278516        1.3847326912        7.9980562489
  O        36.6727869047       35.0998177576        9.2332566717
  O        16.4456295837        0.0643663975        6.6683225284
  O        17.9365432383        2.0433936559        5.3263888775
  O        18.9190107200        3.5931617414        6.6659465026
  O        29.9140408832       18.8318337454        4.0743980600
  O        29.7374275039       18.9746035198       12.0558703617
  O        31.3000757372       16.2713958021        4.1454385319
  O        31.2953280032       16.4100969150       12.0857892262
  O        32.4046771258       17.1477272355        1.4195435513
  O        28.2126027802       18.1021120123        1.2539178264
  O        30.1192679717       15.9689321970       14.4926946662
  O        32.6108101412       17.3539561407       14.4018537300
  O        30.6352087595       19.4920281801        1.5916382319
  O        28.7597099961       18.4745579872       14.5523194363
  O        39.4570173670       35.2440970662        4.0019316276
  O        19.1412990724        0.0045220711       11.9905547974
  O        41.9695813933       35.1727360747        4.0872111584
  O        21.6913217855       -0.0692334551       11.8959951426
  O        51.3650122507       18.6143125468        4.0054127749
  O        10.7510553819       18.7471840300       11.9049280464
  O        50.0795693680       16.4128427519        4.0917637603
  O         9.5246489761       16.4830262146       11.9912431581
 Zr         9.2967765797       16.0527981125        6.1823949167
 Zr        49.8359810950       16.0068228012        9.7465919438
 Zr        22.0735502428        0.0303041239        6.1889787598
 Zr        42.4612482609       35.1539820349        9.8012198626
 Zr        29.6131172230       19.0673735616        6.2566100779
 Zr        29.5724083669       19.1863135166        9.8440731079
 Zr        11.0380461118       19.0518188612        9.8276446581
 Zr        11.0439874544       19.1547076234        6.2510469451
 Zr        31.3421245536       16.1031444621        9.8815737871
 Zr        31.3933615569       15.9986541403        6.2720921819
 Zr        18.6014061142       -0.0007954744        9.7632190236
 Zr        18.5068315980       -0.0069107550        6.2138322142
 Zr        12.3022592098       16.3236300587        7.9903298099
 Zr        48.6159672770       18.8327446084        8.0101869845
 Zr        20.3154312433        2.4741097663        7.9907465170
 Zr        40.6441817868       32.6877244546        7.9782247154
 Zr        28.3440450612       16.3444289483        8.0797669114
 Zr        32.6215857843       18.8270143981        8.0528008101
  H        32.3175335663       16.9791847400       13.5187211199
  H        28.7935835182       17.3132339681        1.4912895153
  H        30.8068612781       19.4005193351       -0.7649261886
  H        30.1253759822       16.6170233874        1.4925161373
