     576
 i =      141, E =     -4780.0855300235
  C        11.8587862418       14.0535665948        5.7415159907
  C        12.4563063578       12.8906374970        5.0232042387
  C        11.7045064779       12.1713884820        4.0818686182
  C        12.2809116024       11.1091565978        3.3895761787
  C        13.6216341659       10.7396946562        3.6169910125
  C        14.3549696426       11.4436871142        4.5900159309
  C        13.7820572912       12.5086976766        5.2814656216
  C        14.2611359505        9.6489691754        2.8436194352
  C        14.2563292680        9.6567981291        1.4219195526
  C        13.7430675711       10.7588908922        0.6680370634
  C        49.1269579435       21.2330756249        5.8796398120
  C        48.5502412385       22.4011651470        5.1526262683
  C        49.3002247714       23.0684027689        4.1715548812
  C        48.7333212208       24.1076061126        3.4383996521
  C        47.4027999164       24.5092724498        3.6670550666
  C        46.6718922077       23.8604776253        4.6806481651
  C        47.2343201945       22.8155167135        5.4099402646
  C        46.7725114379       25.5869808331        2.8698119803
  C        46.7613782326       25.5573421678        1.4480466197
  C        47.2612695629       24.4422281257        0.7045510164
  C        14.8602004091        8.5704253457        0.7086480349
  C        14.8920169734        8.5970864473        3.5202720168
  C        49.1132830800       21.2034190949       10.1452920344
  C        48.5278634856       22.3648003672       10.8725304233
  C        49.2670902314       23.0254941043       11.8654463114
  C        48.6907806184       24.0600681683       12.5969180934
  C        47.3603706632       24.4568343435       12.3586882226
  C        46.6399912261       23.8120295678       11.3350793433
  C        47.2135356963       22.7761065328       10.6033034666
  C        46.7219127685       25.5318221660       13.1497006044
  C        46.7335162845       25.5281303953       14.5714087999
  C        47.2489828628       24.4289287024       15.3277888052
  C        40.6219870641       17.1401955606       15.3095850087
  C        40.6333942256       17.1444900221       12.4996058349
  C        11.8829898938       14.0865437034       10.2855109685
  C        12.4724087486       12.9108706690       10.9898860961
  C        11.7147263157       12.1773195360       11.9155891757
  C        12.2813502382       11.0948980891       12.5840350729
  C        13.6202913551       10.7214388523       12.3524699305
  C        14.3584601769       11.4373738852       11.3920987908
  C        13.7929973853       12.5185185730       10.7193801327
  C        14.2538543260        9.6246226539       13.1228551144
  C        14.2524532152        9.6444639864       14.5446989028
  C        13.7425480805       10.7533890314       15.2917831821
  C        22.5132548053        3.2449228022        5.7527268930
  C        23.2299773542        4.3490409203        5.0525854947
  C        24.2284992592        4.0664185266        4.1085411196
  C        24.8586608265        5.1037688277        3.4257941289
  C        24.5066753528        6.4468516098        3.6664634665
  C        23.5362404463        6.7210431236        4.6476316500
  C        22.9014528508        5.6854550853        5.3289226616
  C        25.1164307655        7.5515317187        2.8903046734
  C        25.0925553511        7.5432677239        1.4684633819
  C        24.3915342325        6.5441055445        0.7211593361
  C        38.3000069922       31.9266516881        5.8509482842
  C        37.5649546029       30.8346788310        5.1473309900
  C        36.6018753511       31.1356930826        4.1718933616
  C        35.9800746083       30.1135816620        3.4594083519
  C        36.3054147882       28.7640828987        3.6997924980
  C        37.2375276904       28.4704183667        4.7129797719
  C        37.8637052540       29.4914375235        5.4242495620
  C        35.7021971211       27.6722390962        2.9004806785
  C        35.7450792991       27.6862496219        1.4788138690
  C        36.4604232760       28.6857451954        0.7464033430
  C        25.7178352498        8.6123422000        0.7489133254
  C        25.7140602692        8.6263916617        3.5611058179
  C        38.3312125091       31.9614791146       10.1594479299
  C        37.6163471451       30.8871752072       10.9078728625
  C        36.6921605753       31.1942501004       11.9182276571
  C        36.0868121090       30.1748772667       12.6510709332
  C        36.3904441001       28.8222961567       12.3967883170
  C        37.2944859283       28.5252914278       11.3583674901
  C        37.9022096280       29.5411310028       10.6272627961
  C        35.7805982337       27.7214712904       13.1782365166
  C        35.7851855754       27.7116491610       14.6006165328
  C        36.4787806815       28.6983418804       15.3696607102
  C        46.1355331280       26.6207805586       15.2815520435
  C        46.0879725796       26.5801997625       12.4736583939
  C        22.4635077128        3.2560642064       10.2577389920
  C        23.1643210136        4.3628033853       10.9782196198
  C        24.1675283550        4.0727407174       11.9169178449
  C        24.8022918951        5.0999478578       12.6113735536
  C        24.4544257704        6.4477649532       12.3906231569
  C        23.4743754400        6.7310007078       11.4202971072
  C        22.8349921145        5.7040232284       10.7261635590
  C        25.0899436903        7.5436689398       13.1653351916
  C        25.0796088156        7.5385907597       14.5884124138
  C        24.3832342705        6.5430894835       15.3441734085
  C        26.6249155919       17.8623989091        5.7816129859
  C        25.3182110113       17.9051924190        5.0557591337
  C        25.0601849303       18.8967890312        4.0961100478
  C        23.8468538227       18.9157858953        3.4106294508
  C        22.8543626763       17.9466999370        3.6628136057
  C        23.1091670706       16.9773123699        4.6513383435
  C        24.3246358361       16.9524228528        5.3338548442
  C        21.5802356939       17.9314662861        2.8996327725
  C        21.5794459952       17.9063676602        1.4770481612
  C        22.7843054835       17.7778769799        0.7161131495
  C        34.4372171442       17.1968071404        5.9192076339
  C        35.7271119557       17.1561646738        5.1687041994
  C        35.9305140860       16.1987288785        4.1626135153
  C        37.1106828449       16.1930552778        3.4241790870
  C        38.1213256437       17.1423227856        3.6731166386
  C        37.9202810554       18.0804332868        4.7035205787
  C        36.7365619702       18.0927025744        5.4378675307
  C        39.3758827127       17.1547540158        2.8867920638
  C        39.3694543730       17.1715191777        1.4650724507
  C        38.1619441776       17.3004832446        0.7091006424
  C        20.3323672029       17.9257254690        0.7692024466
  C        20.3556313938       17.9369248258        3.5825522319
  C        34.4264020572       17.2143560280       10.2181396511
  C        35.7349940884       17.1371555938       10.9283355006
  C        35.9514226402       16.1725734142       11.9237387737
  C        37.1459620890       16.1586800441       12.6384884261
  C        38.1522925632       17.1095566766       12.3785694283
  C        37.9425048934       18.0462217689       11.3491245241
  C        36.7469565594       18.0645082241       10.6362078391
  C        39.4035667405       17.1383630408       13.1675163500
  C        39.3834456639       17.1638398437       14.5887060042
  C        38.1680928078       17.2950128674       15.3323361366
  C        35.1475281021       26.6334421605       15.2999151105
  C        35.1899448329       26.6534692882       12.4906166095
  C        26.5672830076       17.8276250211       10.3225876696
  C        25.2521526586       17.8732920268       11.0270100044
  C        24.9924700060       18.8716045150       11.9781176919
  C        23.7757069222       18.8954384281       12.6536041749
  C        22.7894899819       17.9206746262       12.4020242464
  C        23.0434158309       16.9478261921       11.4181964981
  C        24.2609073081       16.9219454473       10.7407292079
  C        21.5271438987       17.9002071357       13.1767485937
  C        21.5522049825       17.8888467972       14.5983808721
  C        22.7707870908       17.7694308969       15.3395942396
  C        14.0465398269       17.8286003977       10.2894198146
  C        15.3502358065       17.8849995998       11.0155791867
  C        15.6059680492       18.8865892047       11.9652367283
  C        16.8144784693       18.9066089919       12.6589522544
  C        17.8016957502       17.9278487158       12.4254037120
  C        17.5506118516       16.9505388299       11.4437031952
  C        16.3416094620       16.9258622742       10.7515363549
  C        19.0708998696       17.9100138451       13.1941624822
  C        19.0706545960       17.9065501734       14.6166722280
  C        17.8641338171       17.8091640486       15.3788002063
  C        46.8032495789       17.2178686985       10.1572552240
  C        45.5102092455       17.1545202539       10.8986963533
  C        45.3011750483       16.1771312908       11.8839715422
  C        44.1172033759       16.1594157464       12.6168120216
  C        43.1120167087       17.1190069019       12.3864257317
  C        43.3175097324       18.0746182231       11.3730063002
  C        44.5022305288       18.0963539287       10.6413027307
  C        41.8589907835       17.1347932056       13.1760227136
  C        41.8673385319       17.1442449086       14.5981456874
  C        43.0777875091       17.2387883913       15.3546959843
  C        20.3180093772       17.9158060888       15.3240973363
  C        20.2945654720       17.8905476073       12.5111080798
  C        46.7853620383       17.2333084073        5.8862144091
  C        45.4831826334       17.1333834435        5.1663865021
  C        45.2627746577       16.1398979754        4.2003080778
  C        44.0751890659       16.1192648111        3.4725293023
  C        43.0779279226       17.0892467466        3.6931828153
  C        43.2892712921       18.0531235020        4.6968077830
  C        44.4777297634       18.0800777743        5.4196821550
  C        41.8306210833       17.1175089807        2.8971388890
  C        41.8530773778       17.1340026538        1.4758958840
  C        43.0710752435       17.2312022377        0.7317670930
  C        46.1533050006       26.6372057920        0.7263155057
  C        46.1626504016       26.6561469023        3.5359550623
  C        14.0464317291       17.8322291686        5.7090790674
  C        15.3680896529       17.9070065170        5.0197845968
  C        15.6422990906       18.9218031557        4.0906272610
  C        16.8718863403       18.9588743409        3.4367218362
  C        17.8554515257       17.9803494912        3.6857885456
  C        17.5883470868       16.9951198198        4.6538368533
  C        16.3608227559       16.9574935127        5.3113021106
  C        19.1226710405       17.9538907304        2.9163420629
  C        19.0976763303       17.9277466296        1.4948337084
  C        17.8773138300       17.8186297981        0.7549927657
  C        28.7943873058       14.1145514834       10.3984578540
  C        28.2014981620       12.9306866257       11.0831269659
  C        28.9293214899       12.1977158381       12.0322961074
  C        28.3405043024       11.1138740014       12.6796085170
  C        27.0094083725       10.7396468993       12.4037818094
  C        26.3053787755       11.4519154469       11.4159530021
  C        26.8918240188       12.5344824977       10.7660527220
  C        26.3446453569        9.6560049221       13.1643113744
  C        26.3276848562        9.6837503164       14.5855516760
  C        26.8261336430       10.7984915432       15.3319229744
  C        32.1813611467       21.2391315927       10.1423541663
  C        32.7787206842       22.4067375160       10.8589043724
  C        32.0324083554       23.0838075526       11.8359552303
  C        32.6046522364       24.1217771925       12.5653949486
  C        33.9395459926       24.5108913149       12.3403688280
  C        34.6678809993       23.8531226012       11.3310345724
  C        34.0977825011       22.8100430308       10.6028116926
  C        34.5701598038       25.5830295499       13.1450159253
  C        34.5565425179       25.5524648454       14.5668828319
  C        34.0409900309       24.4380439837       15.3013276583
  C        25.7161020671        8.6062011822       15.3037642835
  C        25.7091867024        8.6044508057       12.4902356941
  C        32.0825960448       21.1972154913        5.8722199543
  C        32.6571228333       22.3547693756        5.1232194057
  C        31.9261468614       23.0132420664        4.1222854582
  C        32.5063066982       24.0493891800        3.3918632723
  C        33.8310993895       24.4587165884        3.6439575181
  C        34.5435571302       23.8137453316        4.6731725308
  C        33.9690533405       22.7735926090        5.3979801751
  C        34.4772961614       25.5425404189        2.8664648299
  C        34.5072610208       25.5326918425        1.4446235338
  C        34.0160513933       24.4293968590        0.6779146215
  C        40.6144819774       17.1396380068        0.7543371527
  C        40.6006098518       17.1446225696        3.5643649756
  C        28.7495644562       14.0698863268        5.8178503280
  C        28.1411325212       12.9233301396        5.0777159468
  C        28.8777775971       12.2292068365        4.1058176071
  C        28.2992554020       11.1710208060        3.4085782168
  C        26.9677582924       10.7808576499        3.6571428144
  C        26.2478885295       11.4636473512        4.6554481858
  C        26.8249534623       12.5219554240        5.3548012630
  C        26.3277673792        9.6888454534        2.8844177131
  C        26.3196693557        9.7006704848        1.4624180000
  C        26.8203885148       10.8078224871        0.7078946973
  C        18.1353353871        3.1810582742       10.3169903957
  C        17.4061335661        4.2782448944       11.0156342314
  C        16.3903399177        3.9998683067       11.9430955663
  C        15.7426055194        5.0398371943       12.6065839937
  C        16.0945638577        6.3835822416       12.3670077577
  C        17.0838847706        6.6531150674       11.4031689709
  C        17.7330127100        5.6157940223       10.7381144338
  C        15.4702469871        7.4912577138       13.1300993378
  C        15.4853887048        7.4904275374       14.5518199343
  C        16.1869512420        6.4968139570       15.3049898982
  C        42.9458977174       31.8595357698       10.0728577352
  C        43.6462455197       30.7718615647       10.8168342850
  C        44.5916699968       31.0932095722       11.8030038952
  C        45.1973800674       30.0876817057       12.5506939726
  C        44.8711330769       28.7345874906       12.3357263096
  C        43.9454743343       28.4202260744       11.3223548543
  C        43.3366597708       29.4253462819       10.5742835447
  C        45.4886992468       27.6552914351       13.1389345542
  C        45.4928252575       27.6809070758       14.5606290692
  C        44.8057798822       28.6889672775       15.3072723186
  C        14.8564648498        8.5629320218       15.2642123185
  C        14.8750761486        8.5631194449       12.4515379490
  C        42.9464558861       31.9616847451        5.8088652649
  C        43.6919371181       30.8855501240        5.0956679536
  C        44.6562467622       31.1914645570        4.1230854438
  C        45.2778516879       30.1718763687        3.4054311433
  C        44.9542442785       28.8215312816        3.6431751105
  C        44.0210698713       28.5238774961        4.6542536938
  C        43.3927248799       29.5406348467        5.3663688280
  C        45.5632517053       27.7241129800        2.8579278841
  C        45.5334270080       27.7174032931        1.4366293694
  C        44.8270857074       28.7076126519        0.6836651256
  C        35.1248583816       26.6221330368        0.7452216839
  C        35.0866455738       26.5992008030        3.5556157281
  C        18.1486801268        3.2469807132        5.7066616116
  C        17.4302564643        4.3437924016        4.9972949010
  C        16.4149195505        4.0525439886        4.0738309047
  C        15.7666228775        5.0831752631        3.3984487589
  C        16.1213376138        6.4284227572        3.6211079390
  C        17.1128337843        6.7117885566        4.5782584101
  C        17.7604975268        5.6828735658        5.2580345126
  C        15.4907465055        7.5240885454        2.8486765033
  C        15.4965091261        7.5073744239        1.4275357522
  C        16.1932020940        6.5056401603        0.6808087844
  H        10.6722519939       12.4652303830        3.9051065612
  H        11.6945480750       10.5504127989        2.6632994395
  H        15.3921828053       11.1695265975        4.7713644906
  H        14.3517107860       13.0722936094        6.0164691396
  H        13.3760984355       11.6310187561        1.2013750709
  H        50.3229318897       22.7483547394        3.9868037978
  H        49.3198173223       24.6228433608        2.6808072544
  H        45.6424359858       24.1613308390        4.8638852137
  H        46.6633915145       22.2903293473        6.1721310790
  H        47.6299010859       23.5758897472        1.2462372156
  H        14.8725595143        8.5884611064        4.6085833390
  H        50.2871389922       22.7026292937       12.0603393329
  H        49.2691961198       24.5754884630       13.3604315935
  H        45.6106089322       24.1093304773       11.1459876046
  H        46.6527638704       22.2539794640        9.8316817802
  H        47.6078183881       23.5518410952       14.7968757289
  H        40.6371803843       17.1015752728       11.4120969306
  H        48.6870450330       14.0951829349        7.7999832919
  H        10.6811511738       12.4661609267       12.0927565805
  H        11.6894661274       10.5242258980       13.2964334153
  H        15.3940443556       11.1598374720       11.2064854936
  H        14.3655347935       13.0882387672        9.9912762575
  H        13.3757495187       11.6220184712       14.7531489034
  H        47.9301749217       14.2187056070        9.7110024818
  H        47.7799777542       14.3737710249        6.4952076142
  H        49.0835825813       18.5522243849       10.8672830230
  H        10.4161819405       14.1343584455        7.9988406512
  H        24.4887128531        3.0272235573        3.9200294401
  H        25.6332147840        4.8833761525        2.6943968162
  H        23.2566504111        7.7547130257        4.8404807818
  H        22.1303793974        5.8888870585        6.0680266450
  H        23.8286454477        5.7879233847        1.2606210858
  H        36.3655448374       32.1784342524        3.9732837481
  H        35.2345626470       30.3519433537        2.7039263056
  H        37.4972615724       27.4317881075        4.9072167060
  H        38.6093631777       29.2711589625        6.1845590812
  H        37.0252372954       29.4326891200        1.2966052825
  H        25.7471339860        8.6101491813        4.6490088942
  H        36.4683353592       32.2381171604       12.1263799432
  H        35.3639794643       30.4194653881       13.4262606325
  H        37.5421382019       27.4854942842       11.1552513530
  H        38.6217427493       29.3160198982        9.8438209091
  H        37.0587226796       29.4547552744       14.8485931208
  H        46.1095122364       26.5876464011       11.3856243742
  H        44.6683215660       35.1161911534        7.8139504312
  H        24.4408008030        3.0333010280       12.0839409858
  H        25.5832926805        4.8667626370       13.3319799579
  H        23.1935826071        7.7667339547       11.2402031926
  H        22.0627686274        5.9212463267        9.9917474056
  H        23.8134268962        5.7866818758       14.8123366544
  H        44.9539395506       34.3904236967        9.6951358570
  H        44.9018386576       34.2068939421        6.4905747323
  H        40.6666339379       33.2095310443       10.8533500366
  H        23.1506837619        1.9579445710        8.0049949801
  H        25.8221571567       19.6488022461        3.9040631042
  H        23.6525834998       19.6909742559        2.6724295256
  H        22.3553818465       16.2194393811        4.8549996202
  H        24.5315670089       16.1899288255        6.0811608696
  H        23.7255811300       17.6551944752        1.2442155779
  H        35.1478779543       15.4690669962        3.9690090558
  H        37.2666259603       15.4425425739        2.6523156018
  H        38.6920024227       18.8218322219        4.9003173522
  H        36.5654537906       18.8313011191        6.2176206789
  H        37.2246188455       17.4326174101        1.2417535532
  H        20.3631737794       17.9795913847        4.6703257163
  H        35.1660769999       15.4500987894       12.1336295639
  H        37.3124630722       15.4077905435       13.4076843581
  H        38.7131905901       18.7859840259       11.1425995550
  H        36.5635774803       18.8057838787        9.8619800000
  H        37.2350694110       17.4227050107       14.7909148881
  H        35.1654478387       26.6827696252       11.4029310516
  H        28.4983728355       21.0811764150        7.8985097599
  H        25.7573783662       19.6202011620       12.1713945578
  H        23.5743912923       19.6735753459       13.3866622447
  H        22.2901264547       16.1886331375       11.2178569298
  H        24.4730187646       16.1588118836        9.9956896294
  H        23.7016331011       17.6404615339       14.7953870718
  H        28.9998904621       21.7258222924        9.7463038165
  H        29.1825054018       21.7270456862        6.5769411914
  H        32.0937825892       18.5880409169       10.9833297574
  H        27.4010699878       19.0668883682        8.0734827576
  H        14.8472618741       19.6451756491       12.1442439004
  H        17.0090076670       19.6897776145       13.3885680756
  H        18.3023722823       16.1870755836       11.2541133197
  H        16.1365881739       16.1579604440       10.0094053013
  H        16.9210876516       17.6942783839       14.8523447591
  H        46.0838816124       15.4452650197       12.0694295072
  H        43.9566368902       15.3943581924       13.3732709412
  H        42.5495737732       18.8233780233       11.1900422381
  H        44.6772399425       18.8492551510        9.8763453762
  H        44.0189723393       17.3477835194       14.8234116198
  H        20.2877660092       17.9221392643       11.4230298538
  H        46.0374434306       15.3976206434        4.0215875883
  H        43.9074528258       15.3474323561        2.7244949027
  H        42.5249752612       18.8069050495        4.8741188199
  H        44.6613597657       18.8432916526        6.1718986716
  H        44.0072285252       17.3332158507        1.2730918364
  H        46.1996780232       26.6827533771        4.6233939496
  H        52.7413185505       21.0626824184        8.1947024406
  H        14.8818670648       19.6752301369        3.8972751011
  H        17.0831508949       19.7486986061        2.7190384319
  H        18.3389567300       16.2333775466        4.8544700313
  H        16.1397073819       16.1835503966        6.0422636083
  H        16.9441505288       17.7110423204        1.2996867645
  H        52.3228796243       21.6733721504        6.2940803039
  H        52.0134800632       21.7022682100        9.4956295859
  H        49.0680594284       18.6078140774        5.2037903028
  H        13.2478056971       19.0159664063        7.9775086022
  H        29.9543871017       12.4898439459       12.2492239949
  H        28.9071182200       10.5449347350       13.4135766948
  H        25.2774003944       11.1729585922       11.1938665305
  H        26.3443757544       13.1049654681       10.0197914464
  H        27.1874474554       11.6683032198       14.7918089538
  H        31.0077052570       22.7695322379       12.0194698039
  H        32.0198223216       24.6454852553       13.3184411064
  H        35.7008018917       24.1437411490       11.1503364814
  H        34.6667540813       22.2771247629        9.8443930599
  H        33.6872297688       23.5706865959       14.7514227717
  H        25.7409707775        8.5845349928       11.4022643169
  H        30.9042017820       22.6983877033        3.9230279826
  H        31.9311637244       24.5602542057        2.6225971156
  H        35.5688728373       24.1167987972        4.8751124205
  H        34.5259388264       22.2550172153        6.1747286681
  H        33.6431429371       23.5548523748        1.2031252898
  H        40.5952928699       17.1030440666        4.6519092701
  H        32.5058036549       14.1532662388        8.2628072576
  H        29.9047558612       12.5324975619        3.9152240184
  H        28.8788367308       10.6286965332        2.6646294098
  H        25.2172869482       11.1764276159        4.8537206162
  H        26.2655213799       13.0646740607        6.1130764231
  H        27.1764042930       11.6845552681        1.2410186155
  H        33.3097097517       14.2289316533        6.4671799343
  H        33.4043059801       14.3928475152        9.6129823305
  H        32.1032205556       18.4881646469        5.1666148742
  H        30.2034480118       14.1872852477        8.0812494123
  H        16.1182276473        2.9633739423       12.1294659915
  H        14.9531430490        4.8204569936       13.3222299508
  H        17.3663600097        7.6859867486       11.2100841103
  H        18.5150710770        5.8185314992       10.0103090258
  H        16.7535598851        5.7395106556       14.7714944358
  H        44.8278619118       32.1403007302       11.9772651064
  H        45.9371934751       30.3414747344       13.3066788475
  H        43.6830196450       27.3781232225       11.1520695767
  H        42.6002415441       29.1899818245        9.8094372810
  H        44.2305039132       29.4368000217       14.7689789153
  H        14.8514926579        8.5465151846       11.3633110525
  H        44.8997096907       32.2341450157        3.9315302607
  H        46.0246059412       30.4131367344        2.6520536422
  H        43.7643612032       27.4841253499        4.8460249571
  H        42.6465031171       29.3178254725        6.1250785941
  H        44.2686854852       29.4705765651        1.2182458971
  H        35.0356948271       26.6117222668        4.6427766963
  H        36.6052225410       35.1339060596        8.1808054097
  H        16.1437621593        3.0129848805        3.9041381374
  H        14.9742270147        4.8563576576        2.6884339419
  H        17.3964676468        7.7472389265        4.7550562565
  H        18.5435004638        5.8933857719        5.9826417221
  H        16.7647353266        5.7554522018        1.2192144496
  H        36.2786862374       34.4823434433        6.2728803996
  H        36.3808653303       34.2091446301        9.4997575212
  H        40.5797466058       33.2023219626        5.1535911892
  H        17.4712714270        1.9474376995        7.9740415274
  H        29.0059340211       19.4250540543       12.5112190791
  H        29.7868985564       19.6047892246        3.5949706059
  H        31.7996052717       15.7694407640        3.5440445699
  H        31.1230046515       15.5484594695       12.5604419335
  H        28.0172023016       17.9126890482       14.8974840674
  H        29.4397008965       15.4250187764       14.8338699907
  H        31.5063659280       19.7477839386        1.4869761610
  H        32.9138555523       17.4115543038        1.4352852597
  H        28.5333376041       17.8732458542        2.1974937906
  H        32.2177573111       18.2595949059       14.7179555990
  H        18.8534818305        0.8690770835       12.3351340931
  H        40.5278282274       35.2287104509        3.9519861768
  H        42.3245392631       34.4192410552        3.5901806045
  H        22.0875579395        0.6921027939       12.3516029370
  H        11.5969102471       18.7128263567       12.3824127443
  H        52.2652653331       18.4311932123        3.6774944324
  H        49.2551936462       16.4767694562        3.5845068326
  H        10.1505805911       15.7982333887       12.2926145351
  H        50.8503947641       17.6924760514        3.9541374339
  H        10.0463046973       17.3946696462       12.0519165534
  H        20.2148810880        0.0022905228       12.0419507992
  H        39.1834499672       36.1242091111        3.6866173478
 Ni        31.0313215136       17.8199228861        2.9129319114
 Ni        31.2001588907       16.4437038796        0.0830858794
 Ni        29.8024950328       18.7722751474        0.0840677025
 Ni        29.9706877599       17.4523947679       13.3228262779
  O        10.6499120809       14.3650749333        5.4858206815
  O        12.6131957000       14.6574704324        6.5838918447
  O        49.1478015403       16.8458769658        7.9896948510
  O        50.3503301544       20.9357550831        5.6479974486
  O        48.3485719716       20.5933499041        6.6659326334
  O        11.0516907205       17.0537623887        6.5007016665
  O        50.3210008217       20.8816675029       10.4068729075
  O        48.3467479807       20.5867090324        9.3271417973
  O        49.5437705171       18.2483447612       10.0682442279
  O        12.3591498406       18.6245807786        7.9997276641
  O        48.6931732992       14.1486721401        6.7512591824
  O         8.2098489155       14.2104723087        9.3226120564
  O        10.7353161896       14.5067788138       10.6643069820
  O        12.5717811942       14.5828204875        9.3285131870
  O        22.8446663475        2.0432060995        5.4870412365
  O        21.6062733196        3.5927604620        6.5889332430
  O        42.0582052977       34.1374693307        7.9789041728
  O        37.9812093059       33.1347334719        5.5719387300
  O        39.2180480227       31.5750741517        6.6663955666
  O        20.3083876094        1.0396768728        6.5022490019
  O        38.0245325541       33.1850777598       10.4157251498
  O        39.2189929146       31.5835322805        9.3266997713
  O        40.6523128702       33.7693593931       10.0601435136
  O        18.2557762748        1.3759994948        7.9967514794
  O        44.6222040787       35.1005876844        6.7587657442
  O        24.2054025210       -0.0000135180        9.3207547351
  O        22.7532349703        2.0572658035       10.5837902659
  O        21.6254834535        3.5969144281        9.3443575386
  O        27.5003156413       18.7531167409        5.4968952818
  O        26.7657754124       16.9350383535        6.6542222975
  O        30.6608144249       19.4034387879        8.0679940202
  O        33.5872252442       16.2737941343        5.6698098111
  O        34.2722572920       18.1671958814        6.7384129948
  O        29.5726587316       17.0565092183        6.5771540349
  O        33.5435358241       16.3302847986       10.4941652454
  O        34.2676635552       18.1816353986        9.4040952480
  O        31.6456109871       18.3153823471       10.1663250796
  O        30.3161155703       15.1518304776        8.0953414566
  O        28.5508993279       21.0338447107        6.8420652169
  O        28.5135152897       20.9558567727        9.4059338871
  O        27.4533427228       18.6789015870       10.6581800161
  O        26.6936292223       16.9280776907        9.4126308428
  O        13.1484909919       18.6929461431       10.5873866476
  O        13.9193216063       16.9163801755        9.4050615905
  O        50.5962333994       19.3501822322        8.0203553030
  O        47.6819904323       16.3273131161       10.4175820166
  O        46.9514109836       18.1759661212        9.3245870887
  O        11.0698009953       17.0154673366        9.4896220525
  O        47.6748222807       16.3359804904        5.6523374751
  O        46.9267314254       18.2359419859        6.6642737778
  O        49.5687140031       18.3176094212        5.9822587464
  O        10.3188300320       15.1002080657        7.9972254617
  O        52.6707392210       21.0278412909        9.2418084017
  O        12.1468451435       20.8911750901        6.6732753040
  O        13.1084385053       18.6135184469        5.3255518655
  O        13.9572251878       16.9870728271        6.6653738745
  O        29.9642659514       14.5055919528       10.7462154656
  O        28.0812021049       14.6551997819        9.4899232556
  O        32.0760728465       16.8559578541        8.0902959772
  O        30.9677596056       20.9534004356       10.4089780896
  O        32.9489521871       20.5964411597        9.3377657647
  O        29.5643621367       17.0802456218        9.5795007072
  O        30.8526308227       20.8855361254        5.6528328578
  O        32.8697795043       20.5858907155        6.6643272430
  O        31.6850049668       18.2488137496        6.0120496546
  O        28.2899237275       18.6759819822        8.0779075842
  O        32.4877512867       14.2162734481        9.3343929337
  O        32.4056820890       14.2154112678        6.8240770738
  O        29.9232343990       14.4413998348        5.4916357033
  O        28.0404987718       14.5893255971        6.7517208396
  O        17.8893328597        1.9666273314       10.6628097258
  O        18.9564119212        3.5270984230        9.4079657845
  O        39.1685831686       34.1387216391        7.9971299834
  O        43.2801502595       33.0589434964       10.3317302618
  O        42.0344521306       31.5064845535        9.2416026275
  O        20.3177420293        1.0368976099        9.4799619400
  O        43.2761687896       33.1826262323        5.5749401385
  O        42.0053395329       31.5840749514        6.5830031878
  O        40.5788188067       33.7749327003        5.9357571612
  O        22.3674208098        1.3848786807        7.9979141561
  O        36.6728224379       35.0997261596        9.2333572372
  O        16.4457562442        0.0640329088        6.6681437426
  O        17.9365926458        2.0432925462        5.3264201660
  O        18.9192545344        3.5930693598        6.6659568561
  O        29.8607779500       18.7589795681        4.0771626989
  O        29.7449329390       18.9793949886       12.0567137477
  O        31.3010851824       16.4014528002        4.0942653879
  O        31.2993107674       16.4189185647       12.1528698523
  O        32.1454932304       16.8589191779        1.6682634384
  O        28.4981335505       17.5892936024        1.2554258990
  O        30.2501601087       15.8917256600       14.5742043981
  O        32.6105662696       17.3601333241       14.7469193702
  O        30.6827874233       19.2675070330        1.6741422003
  O        28.7549359540       18.4581769376       14.5665847043
  O        39.4565785383       35.2435028455        4.0020204619
  O        19.1414077270        0.0045528478       11.9905265382
  O        41.9694392632       35.1725644246        4.0871165379
  O        21.6912152402       -0.0693571421       11.8959406708
  O        51.3653240115       18.6142828767        4.0054023339
  O        10.7510533053       18.7471595462       11.9049370110
  O        50.0796358155       16.4127901714        4.0917706284
  O         9.5246440644       16.4830775802       11.9911850711
 Zr         9.2973300475       16.0526986989        6.1824912480
 Zr        49.8367478506       16.0067740773        9.7463895859
 Zr        22.0733625641        0.0303677056        6.1887883911
 Zr        42.4610887752       35.1539053095        9.8010288913
 Zr        29.6099911417       19.0702691813        6.2963371351
 Zr        29.5637656950       19.1831459334        9.8978816910
 Zr        11.0385202408       19.0518362911        9.8277745733
 Zr        11.0445850995       19.1546598707        6.2509169135
 Zr        31.3294271200       16.1112989149        9.9151141455
 Zr        31.3865478827       16.0099138597        6.2893399460
 Zr        18.6013950598       -0.0009661290        9.7633304420
 Zr        18.5067476199       -0.0076595057        6.2137165793
 Zr        12.3028941270       16.3236069582        7.9902749963
 Zr        48.6169831483       18.8330440783        8.0102285447
 Zr        20.3159856541        2.4744231209        7.9906959555
 Zr        40.6437506169       32.6873709116        7.9779847536
 Zr        28.3398632880       16.3412302105        8.0816497951
 Zr        32.6152825214       18.8284180661        8.0571986047
  H        32.4133580422       16.9943215916       13.8431275091
  H        29.0889060862       16.7876218717        1.2289758636
  H        30.7257594342       19.5161628938       -0.7584171507
  H        30.2892829340       15.6889832880        0.9304763808
