     571
 i =      335, E =     -4761.6903992567
  C        11.8587827630       14.0535600514        5.7416029037
  C        12.4563237526       12.8906131930        5.0232939095
  C        11.7046117123       12.1716280266        4.0816979394
  C        12.2809994896       11.1094366863        3.3893301260
  C        13.6215886328       10.7396821258        3.6170362771
  C        14.3547946685       11.4433436907        4.5904065012
  C        13.7818939451       12.5083104569        5.2819290361
  C        14.2611288494        9.6490206010        2.8436305192
  C        14.2563704163        9.6569020842        1.4219281801
  C        13.7432556001       10.7590590305        0.6680334662
  C        49.1266638371       21.2332245371        5.8796715302
  C        48.5498632876       22.4011440041        5.1526008412
  C        49.2999380051       23.0685195622        4.1716757888
  C        48.7330047395       24.1076271747        3.4384402239
  C        47.4024348141       24.5091977381        3.6669929067
  C        46.6714298632       23.8602690169        4.6804295941
  C        47.2338781955       22.8153782253        5.4098106816
  C        46.7722583490       25.5869331653        2.8697187307
  C        46.7612878371       25.5573441768        1.4479568111
  C        47.2612019896       24.4422410851        0.7044685205
  C        14.8602662246        8.5705436128        0.7086558087
  C        14.8918429317        8.5970255103        3.5202677371
  C        49.1131661459       21.2033886240       10.1452825638
  C        48.5277929389       22.3647667992       10.8724574007
  C        49.2670527009       23.0254638217       11.8653575014
  C        48.6907797583       24.0600556042       12.5968109459
  C        47.3603707979       24.4568517312       12.3586024534
  C        46.6399201347       23.8119687929       11.3350914969
  C        47.2134250964       22.7760236062       10.6033173770
  C        46.7219926835       25.5318830526       13.1496110521
  C        46.7336299464       25.5282111316       14.5713179329
  C        47.2489949017       24.4289688308       15.3277065696
  C        40.6185408711       17.0971442845       15.2909845128
  C        40.6194325129       17.1291965952       12.4819970575
  C        11.8829907031       14.0865710586       10.2854847439
  C        12.4722963653       12.9107523307       10.9897411371
  C        11.7147262787       12.1775335810       11.9157898043
  C        12.2812801803       11.0950750269       12.5842388624
  C        13.6201033411       10.7213421518       12.3524506768
  C        14.3581390355       11.4369337461       11.3917150601
  C        13.7927451251       12.5181135642       10.7190027614
  C        14.2536722135        9.6245631203       13.1228618139
  C        14.2524631781        9.6445392858       14.5447037742
  C        13.7426567121       10.7535193604       15.2917778747
  C        22.5082565902        3.2436430016        5.7505484880
  C        23.2150103604        4.3488476212        5.0438557969
  C        24.2082055142        4.0691447581        4.0937913661
  C        24.8294198266        5.1089350294        3.4070584702
  C        24.4723328595        6.4499785396        3.6503829597
  C        23.5059097873        6.7211917146        4.6360127818
  C        22.8803635570        5.6833229313        5.3213338937
  C        25.0770642072        7.5574615834        2.8761860890
  C        25.0565259205        7.5520344081        1.4546224080
  C        24.3604848967        6.5522957306        0.7034501547
  C        38.3037181043       31.9280967883        5.8461475224
  C        37.5770791537       30.8391769971        5.1307617576
  C        36.6186793371       31.1448820757        4.1521760254
  C        36.0017063683       30.1265883257        3.4302768830
  C        36.3274743005       28.7762400153        3.6648677441
  C        37.2577673239       28.4780013763        4.6785893961
  C        37.8788511753       29.4950466217        5.3993939383
  C        35.7214887769       27.6854537678        2.8671376497
  C        35.7477701597       27.7003877148        1.4453611621
  C        36.4496806015       28.7035313861        0.7055104607
  C        25.6817043443        8.6238083172        0.7394951180
  C        25.6705764291        8.6314286207        3.5516093727
  C        38.3261982551       31.9623304345       10.1530773320
  C        37.5978866782       30.8890093137       10.8879346328
  C        36.6640326625       31.1977215882       11.8887596733
  C        36.0488491519       30.1790196027       12.6135108173
  C        36.3538940534       28.8265532869       12.3614210099
  C        37.2639416607       28.5276999285       11.3291177800
  C        37.8807458863       29.5429212457       10.6049698387
  C        35.7460436241       27.7278992244       13.1462900690
  C        35.7601773650       27.7223154767       14.5682420490
  C        36.4551750646       28.7144537069       15.3288260170
  C        46.1356920643       26.6208917532       15.2814475239
  C        46.0880808927       26.5802623513       12.4735510926
  C        22.4629920293        3.2564717995       10.2555561716
  C        23.1615580998        4.3668629639       10.9724963688
  C        24.1708607527        4.0837854733       11.9065021149
  C        24.8018024173        5.1160982822       12.5968744570
  C        24.4432522602        6.4611701899       12.3768544635
  C        23.4578044944        6.7376529650       11.4104158566
  C        22.8227514682        5.7056680881       10.7198868629
  C        25.0711813747        7.5601904646       13.1531668191
  C        25.0543635755        7.5529087972       14.5758055804
  C        24.3576283142        6.5538934638       15.3266512575
  C        26.6348443607       17.8306514506        5.7432557961
  C        25.3217526191       17.8871200699        5.0329010880
  C        25.0618392944       18.8833938285        4.0787142050
  C        23.8427888561       18.9125738108        3.4047506714
  C        22.8478669931       17.9467795524        3.6598938221
  C        23.1029590238       16.9753189252        4.6462929427
  C        24.3227046351       16.9428722890        5.3207468770
  C        21.5741120110       17.9353735946        2.8969633481
  C        21.5757114611       17.9149094455        1.4742238838
  C        22.7817686912       17.7872051703        0.7152413895
  C        34.4407384801       17.1850829777        5.8787914293
  C        35.7390573955       17.1134341678        5.1478043149
  C        35.9476649824       16.1353774065        4.1634261960
  C        37.1310954528       16.1177936312        3.4300125212
  C        38.1374393917       17.0750136519        3.6641731864
  C        37.9339366120       18.0292912814        4.6788136545
  C        36.7474319717       18.0539172944        5.4072503239
  C        39.3888362532       17.0889219023        2.8731515162
  C        39.3757796331       17.1075271728        1.4517611164
  C        38.1634239714       17.2312380227        0.7029492090
  C        20.3301346598       17.9370923215        0.7641018722
  C        20.3486796670       17.9386260215        3.5779726611
  C        34.4428974130       17.2493851547       10.1472588759
  C        35.7377888584       17.1666329645       10.8834150406
  C        35.9292797878       16.2046771994       11.8871725651
  C        37.1165027404       16.1752449584       12.6141168155
  C        38.1403854455       17.1095638724       12.3621688682
  C        37.9516122381       18.0488003209       11.3301737783
  C        36.7650628407       18.0811161895       10.6029889759
  C        39.3909881097       17.1187708790       13.1534080877
  C        39.3764399047       17.1245193793       14.5752578624
  C        38.1642704554       17.2402888270       15.3263163119
  C        35.1330307467       26.6426743307       15.2740253376
  C        35.1552213711       26.6565671544       12.4648039735
  C        26.5786224679       17.8291023925       10.3223221753
  C        25.2652781511       17.8696393066       11.0342170601
  C        25.0023068976       18.8739504345       11.9781714407
  C        23.7837472488       18.9011590382       12.6512650996
  C        22.7983520133       17.9243662570       12.4036836503
  C        23.0567605395       16.9437870116       11.4288299067
  C        24.2761233044       16.9143311060       10.7544162045
  C        21.5326266335       17.9092769240       13.1738995197
  C        21.5540782907       17.9004241295       14.5954298612
  C        22.7710111141       17.7805260489       15.3389044539
  C        14.0475692452       17.8299483410       10.2878505106
  C        15.3532696696       17.8896810829       11.0108477885
  C        15.6106008038       18.8951737288       11.9559275988
  C        16.8204062160       18.9183053860       12.6474099901
  C        17.8073953035       17.9387199152       12.4162774881
  C        17.5550969743       16.9579404156       11.4383650373
  C        16.3447839544       16.9302742180       10.7483748516
  C        19.0761091555       17.9219659612       13.1862110340
  C        19.0728004841       17.9202355254       14.6088535550
  C        17.8647527396       17.8244405439       15.3689845211
  C        46.8012018399       17.2147488852       10.1528148791
  C        45.5030939017       17.1436505705       10.8840987020
  C        45.2890472856       16.1578132746       11.8597084064
  C        44.1018843408       16.1347335275       12.5868507717
  C        43.0987060838       17.0975684277       12.3611212899
  C        43.3078014131       18.0598310300       11.3548206835
  C        44.4957417122       18.0866765128       10.6283354817
  C        41.8472848350       17.1104476309       13.1532234005
  C        41.8611244541       17.1101868539       14.5752030520
  C        43.0746738930       17.2057264325       15.3264360873
  C        20.3186079190       17.9287699660       15.3188928187
  C        20.3013548639       17.8999687274       12.5056258110
  C        46.7864380131       17.2333766514        5.8830598842
  C        45.4896459737       17.1293932412        5.1544434661
  C        45.2839311743       16.1366410119        4.1839445873
  C        44.1008546007       16.1058313003        3.4494642159
  C        43.0923499861       17.0644759884        3.6682313656
  C        43.2904222780       18.0294732412        4.6738768156
  C        44.4748413366       18.0669615179        5.4032392133
  C        41.8436710255       17.0765706279        2.8735769647
  C        41.8599297876       17.0908570761        1.4521797788
  C        43.0741057374       17.1958354440        0.7032863054
  C        46.1533596565       26.6372721790        0.7262083496
  C        46.1622904561       26.6560364408        3.5358459841
  C        14.0449649667       17.8315467780        5.7080780698
  C        15.3650767969       17.9059614648        5.0160141326
  C        15.6379554084       18.9231496562        4.0891658811
  C        16.8663513461       18.9614964192        3.4332491982
  C        17.8494726085       17.9816713152        3.6781902848
  C        17.5831577845       16.9929155208        4.6428609029
  C        16.3568987049       16.9541835723        5.3024642547
  C        19.1169871943       17.9585181033        2.9095519621
  C        19.0942641507       17.9378867868        1.4878435892
  C        17.8752092940       17.8322832886        0.7453503263
  C        28.7975409937       14.1231489206       10.3978851070
  C        28.1925249131       12.9498305771       11.0924994466
  C        28.9137420723       12.2151822892       12.0450078846
  C        28.3187246218       11.1324929504       12.6887971972
  C        26.9881927830       10.7616393668       12.4062563305
  C        26.2886846401       11.4790076277       11.4192047595
  C        26.8815428236       12.5601151922       10.7727592771
  C        26.3197084159        9.6759284532       13.1604380055
  C        26.2969658759        9.7009917454       14.5813271621
  C        26.7925298003       10.8145499660       15.3313260926
  C        32.1815679439       21.2421457209       10.1043889541
  C        32.7696856096       22.4034356626       10.8366202281
  C        32.0178446787       23.0748019455       11.8131413314
  C        32.5848856549       24.1121157690       12.5483262281
  C        33.9183696005       24.5073485228       12.3262080210
  C        34.6530718936       23.8526755227       11.3195773174
  C        34.0894577835       22.8090835181       10.5880786053
  C        34.5439352190       25.5856646566       13.1260963420
  C        34.5405471674       25.5579352740       14.5477158771
  C        34.0378083429       24.4415577942       15.2875420727
  C        25.6848775998        8.6209947242       15.2949064192
  C        25.6896523582        8.6239087878       12.4819541876
  C        32.1131139646       21.2008757033        5.8370897773
  C        32.6982003065       22.3615582351        5.1041615654
  C        31.9693197708       23.0103577543        4.0953579807
  C        32.5452223502       24.0506330586        3.3700431880
  C        33.8655428795       24.4686256148        3.6304670105
  C        34.5755663585       23.8332742729        4.6674024328
  C        34.0030957531       22.7909237934        5.3918124236
  C        34.5055037389       25.5507945849        2.8473519896
  C        34.5214653809       25.5397352404        1.4251574576
  C        34.0288024700       24.4329375065        0.6643581885
  C        40.6179282662       17.0878751389        0.7358459423
  C        40.6159972176       17.0915458200        3.5455032283
  C        28.7364378796       14.0690511513        5.7872342169
  C        28.1203366295       12.9199839793        5.0612181067
  C        28.8546472863       12.2084046144        4.0997661894
  C        28.2675117531       11.1525025416        3.4077985834
  C        26.9302048415       10.7814261743        3.6523304016
  C        26.2136936489       11.4773968836        4.6437920306
  C        26.7991980283       12.5343771416        5.3379016569
  C        26.2850072565        9.6944837932        2.8783171174
  C        26.2808382733        9.7105539583        1.4567810936
  C        26.7835590705       10.8199881899        0.7071564996
  C        18.1353147884        3.1809749294       10.3171816245
  C        17.4059205910        4.2781759157       11.0157131248
  C        16.3903295322        3.9997614217       11.9433625120
  C        15.7425435277        5.0397149971       12.6068401440
  C        16.0942915214        6.3834690943       12.3670576543
  C        17.0834849300        6.6530367874       11.4031028814
  C        17.7326268310        5.6157253024       10.7380561961
  C        15.4699789740        7.4911518349       13.1301231790
  C        15.4853216481        7.4904611900       14.5518372114
  C        16.1868429388        6.4968187562       15.3050058015
  C        42.9459014672       31.8595333195       10.0728427609
  C        43.6463072824       30.7719159666       10.8168026921
  C        44.5918044107       31.0932916111       11.8028941857
  C        45.1975667757       30.0877797737       12.5505535470
  C        44.8713149722       28.7346828196       12.3356041489
  C        43.9455521064       28.4202974930       11.3223429257
  C        43.3366822276       29.4254033655       10.5743030335
  C        45.4889026553       27.6554096221       13.1388201041
  C        45.4930053496       27.6810235945       14.5605160153
  C        44.8059680292       28.6891096749       15.3071334744
  C        14.8564266603        8.5629829603       15.2642234618
  C        14.8747637604        8.5629751087       12.4515523239
  C        42.9465067593       31.9615618087        5.8089545060
  C        43.6917377395       30.8854710505        5.0954967396
  C        44.6563567611       31.1913818328        4.1232150462
  C        45.2778476459       30.1717983756        3.4054663212
  C        44.9540607515       28.8214725908        3.6430709149
  C        44.0205667461       28.5238078577        4.6538451584
  C        43.3923337862       29.5405645697        5.3660526552
  C        45.5630747424       27.7240816919        2.8577973446
  C        45.5334389475       27.7174569001        1.4364990785
  C        44.8271737208       28.7077108335        0.6835275075
  C        35.1251328304       26.6324744527        0.7192148011
  C        35.1169270566       26.6104019048        3.5288055938
  C        18.1484963377        3.2468497459        5.7065955259
  C        17.4299471648        4.3436839159        4.9972735678
  C        16.4146853641        4.0524580640        4.0737446166
  C        15.7663939029        5.0831235845        3.3983852843
  C        16.1211035251        6.4283535362        3.6210860143
  C        17.1125610245        6.7116803816        4.5782805924
  C        17.7602059077        5.6827466343        5.2580346567
  C        15.4906344654        7.5240806941        2.8486620846
  C        15.4964323842        7.5074022875        1.4275309737
  C        16.1931230163        6.5056605134        0.6808196581
  H        10.6724561838       12.4657055368        3.9047389550
  H        11.6946846492       10.5508917893        2.6628609832
  H        15.3918602467       11.1688288265        4.7720641037
  H        14.3513885759       13.0716238920        6.0172754010
  H        13.3762915517       11.6311954095        1.2013585528
  H        50.3226691301       22.7485193116        3.9869996471
  H        49.3195166418       24.6229291840        2.6809093756
  H        45.6419042320       24.1609724784        4.8635184072
  H        46.6628151665       22.2900456251        6.1718041998
  H        47.6296586892       23.5758320704        1.2461552013
  H        14.8722359415        8.5883099224        4.6085757077
  H        50.2870932699       22.7025849607       12.0602412682
  H        49.2692066600       24.5755001678       13.3602961102
  H        45.6105140779       24.1092222008       11.1460575892
  H        46.6525563527       22.2538689335        9.8317834877
  H        47.6077434107       23.5518376346       14.7968074244
  H        40.6196021863       17.0975432492       11.3940972277
  H        48.6870498623       14.0950207841        7.8000133134
  H        10.6812355805       12.4665859573       12.0931197631
  H        11.6894481778       10.5246413560       13.2968728826
  H        15.3936023427       11.1590986325       11.2058727855
  H        14.3651469448       13.0875524012        9.9905733004
  H        13.3758669459       11.6221457481       14.7531310951
  H        47.9301715315       14.2187588150        9.7109392111
  H        47.7799795300       14.3735077218        6.4952544494
  H        49.0823155895       18.5516397440       10.8668781110
  H        10.4159090521       14.1343793927        7.9989220479
  H        24.4715565194        3.0308319781        3.9048261360
  H        25.6010282708        4.8925020109        2.6714053839
  H        23.2229444918        7.7538179892        4.8294259427
  H        22.1125627814        5.8825727050        6.0648835297
  H        23.7975791786        5.7938918476        1.2397942250
  H        36.3812685471       32.1885047330        3.9597242203
  H        35.2575164689       30.3685655564        2.6746760538
  H        37.5180849712       27.4384973040        4.8671157582
  H        38.6217100142       29.2713013222        6.1614047751
  H        37.0155667710       29.4541550244        1.2496032187
  H        25.7016109216        8.6119236895        4.6395008284
  H        36.4418670209       32.2419553990       12.0966403104
  H        35.3199856678       30.4235551120       13.3830491999
  H        37.5105920887       27.4873935229       11.1274910059
  H        38.6063837561       29.3175179111        9.8272999523
  H        37.0262113962       29.4730789027       14.8014178520
  H        46.1095316013       26.5876569536       11.3855157279
  H        44.6682630122       35.1161676220        7.8139279997
  H        24.4511885691        3.0462083061       12.0736244765
  H        25.5869545493        4.8892741618       13.3150101161
  H        23.1691681875        7.7713518937       11.2310478299
  H        22.0459465778        5.9166369054        9.9885363034
  H        23.7922166652        5.7970244336       14.7907930974
  H        44.9536882409       34.3902833712        9.6951594813
  H        44.9017561303       34.2068291978        6.4905919096
  H        40.6652637412       33.2085153732       10.8527269258
  H        23.1502405982        1.9579416706        8.0042284870
  H        25.8264582326       19.6307667290        3.8800379143
  H        23.6466517936       19.6915371320        2.6710519298
  H        22.3464528938       16.2211597838        4.8535871124
  H        24.5296781665       16.1792324853        6.0668553759
  H        23.7216029291       17.6627791449        1.2451927238
  H        35.1639928138       15.4041784842        3.9792291433
  H        37.2906115989       15.3559154367        2.6700919511
  H        38.7038321661       18.7755103812        4.8639084970
  H        36.5708633960       18.8078481087        6.1708189584
  H        37.2271093230       17.3512158475        1.2406031597
  H        20.3541247462       17.9770650566        4.6659081056
  H        35.1316084822       15.4952465945       12.0949372070
  H        37.2630717341       15.4220065714       13.3850109911
  H        38.7338147515       18.7782491963       11.1303504461
  H        36.6018574836       18.8225099049        9.8243878655
  H        37.2278311515       17.3674759702       14.7911202752
  H        35.1253247508       26.6822511922       11.3771537137
  H        28.5055436628       21.0787312065        7.8689331383
  H        25.7652458797       19.6269046968       12.1635342050
  H        23.5793498223       19.6850259735       13.3774346400
  H        22.3047963257       16.1822912732       11.2321467806
  H        24.4905447967       16.1465203684       10.0148699673
  H        23.7025641880       17.6516232912       14.7960412366
  H        29.0038449504       21.7248243203        9.7294969385
  H        29.1785159435       21.7302240559        6.5494096921
  H        32.0821628434       18.6087797767       10.8941183178
  H        27.3973011011       19.0632457258        8.0169121323
  H        14.8518558275       19.6540507204       12.1335687225
  H        17.0157659723       19.7042116673       13.3738571638
  H        18.3065493612       16.1937420180       11.2505159190
  H        16.1387343523       16.1595006430       10.0094890748
  H        16.9224555728       17.7114092143       14.8408099708
  H        46.0709362419       15.4246594082       12.0434161040
  H        43.9379217694       15.3644509247       13.3372503070
  H        42.5411438273       18.8105916582       11.1746891029
  H        44.6741962548       18.8453738889        9.8699303589
  H        44.0128936579       17.3200569887       14.7911534124
  H        20.2967781389       17.9289402417       11.4174488432
  H        46.0663112765       15.4017996379        4.0084646061
  H        43.9444340212       15.3332324591        2.6997884467
  H        42.5176534544       18.7750778829        4.8490348162
  H        44.6468745358       18.8304548507        6.1580050112
  H        44.0119827434       17.3023758299        1.2407556762
  H        46.1991088838       26.6825483613        4.6232917181
  H        52.7411681449       21.0626421118        8.1946803546
  H        14.8776289471       19.6776744738        3.8997924150
  H        17.0772364338       19.7536286744        2.7180047601
  H        18.3335356094       16.2299013332        4.8394659497
  H        16.1361780892       16.1781918332        6.0313864734
  H        16.9407636936       17.7252652637        1.2879899597
  H        52.3224755004       21.6732995287        6.2943111574
  H        52.0133105729       21.7021583912        9.4956572123
  H        49.0680245360       18.6079826595        5.2037082210
  H        13.2474618397       19.0163735409        7.9770871771
  H        29.9383156040       12.5049933577       12.2671400114
  H        28.8805800801       10.5610266041       13.4244489338
  H        25.2603054319       11.2041743121       11.1937707567
  H        26.3390146625       13.1333381913       10.0250988500
  H        27.1554136054       11.6856898907       14.7944054824
  H        30.9923727294       22.7592922246       11.9902575079
  H        31.9965256290       24.6318631946       13.3014001705
  H        35.6853113824       24.1479571785       11.1427723517
  H        34.6623739701       22.2788165838        9.8308014239
  H        33.6832856526       23.5717014410       14.7420194949
  H        25.7258872164        8.6058811213       11.3940810714
  H        30.9552864080       22.6774816601        3.8856902821
  H        31.9722164636       24.5559937580        2.5957053514
  H        35.5974374923       24.1440484021        4.8748989380
  H        34.5576115928       22.2790649263        6.1748645096
  H        33.6686644291       23.5553756291        1.1934015007
  H        40.6152386652       17.0526641554        4.6331550529
  H        32.5166988654       14.1473443598        8.2377721486
  H        29.8879239820       12.4929075698        3.9148288656
  H        28.8433249145       10.5972471573        2.6705254140
  H        25.1793403894       11.2022118679        4.8395917814
  H        26.2428143778       13.0887007818        6.0900525364
  H        27.1383578739       11.6952031751        1.2435058461
  H        33.2977245810       14.1948864456        6.4425578558
  H        33.4055024313       14.3812743463        9.6096080510
  H        32.1048952151       18.5126076026        5.0781804766
  H        30.2322601160       14.1869098950        8.0769909779
  H        16.1183966089        2.9632391407       12.1298574564
  H        14.9531668872        4.8202865125       13.3225675442
  H        17.3657404641        7.6859379753       11.2098640111
  H        18.5144972165        5.8184305082       10.0100437546
  H        16.7533482767        5.7394434725       14.7715028339
  H        44.8279663657       32.1403879841       11.9771503797
  H        45.9374064339       30.3415692675       13.3065121906
  H        43.6829982765       27.3782078601       11.1521400802
  H        42.6001351998       29.1900020454        9.8095953976
  H        44.2306454757       29.4368983098       14.7688261956
  H        14.8509649948        8.5462234899       11.3633317735
  H        44.8999266970       32.2340594429        3.9317831810
  H        46.0247763514       30.4130208119        2.6522509335
  H        43.7636201036       27.4840774451        4.8454144707
  H        42.6458534975       29.3177437956        6.1245059902
  H        44.2686767790       29.4706163033        1.2180926201
  H        35.0756459789       26.6241776999        4.6163277636
  H        36.6050371746       35.1339857852        8.1807173991
  H        16.1435191312        3.0128960203        3.9040528055
  H        14.9739945805        4.8563174539        2.6883709150
  H        17.3961020160        7.7471395452        4.7551646162
  H        18.5430994151        5.8931738476        5.9827852726
  H        16.7645309923        5.7553869574        1.2192376403
  H        36.2782170018       34.4824780344        6.2731416998
  H        36.3805808128       34.2093736655        9.4998588079
  H        40.5804668343       33.2024679814        5.1533618320
  H        17.4707731585        1.9471018916        7.9741180374
  H        29.2383682524       19.4662489019       12.4327347019
  H        29.0991937223       19.1788168828        3.4821280384
  H        30.4883518269       15.6670830889        3.8008061798
  H        31.0229206660       15.5331907688       12.3467332555
  H        27.9756684304       17.8863220406       14.2382548811
  H        29.1771666452       15.6932384679       14.4996160839
  H        31.2543718615       19.5673486947        1.2845835061
  H        32.2826793510       16.1386194431        1.8632248427
  H        33.1492429011       17.6680935303       14.4871405122
  H        18.8537848362        0.8689737900       12.3354378402
  H        40.5280067101       35.2290830895        3.9520994762
  H        42.3241833941       34.4191865268        3.5903884060
  H        22.0878798291        0.6924339298       12.3514678085
  H        11.5969463091       18.7129014240       12.3824521444
  H        52.2650964038       18.4312926890        3.6776153539
  H        49.2548908891       16.4773184677        3.5847457351
  H        10.1508366119       15.7982493274       12.2925629675
  H        50.8502300273       17.6924851729        3.9541833899
  H        10.0463086336       17.3946904087       12.0519493913
  H        20.2151214681        0.0022850073       12.0419651682
  H        39.1835544618       36.1243205913        3.6865673378
 Ni        30.8157351512       17.7491907006        2.7476478087
 Ni        31.0692842022       16.6228319235       -0.2509441206
 Ni        29.7248295550       18.5654929534       -0.2444593250
 Ni        30.0087487064       17.4259372504       12.9942940553
  O        10.6500031545       14.3651149488        5.4858591222
  O        12.6132176854       14.6575415182        6.5839305925
  O        49.1478398738       16.8459834581        7.9898281863
  O        50.3501266798       20.9360215042        5.6481731752
  O        48.3484720165       20.5932855633        6.6659573986
  O        11.0517211312       17.0538213636        6.5007060273
  O        50.3209487506       20.8816558371       10.4068348216
  O        48.3466883212       20.5867006650        9.3270844347
  O        49.5436096536       18.2484171945       10.0682224070
  O        12.3589964642       18.6246157437        7.9997594410
  O        48.6932230829       14.1485608617        6.7513079004
  O         8.2098799337       14.2105050488        9.3226135368
  O        10.7353764627       14.5067340906       10.6643380416
  O        12.5718266185       14.5828416683        9.3284842153
  O        22.8442730310        2.0429266073        5.4871528011
  O        21.6048166026        3.5918633030        6.5900772930
  O        42.0581307019       34.1372694185        7.9790722568
  O        37.9816168508       33.1366514235        5.5721297281
  O        39.2176233345       31.5752846208        6.6659289939
  O        20.3082946856        1.0393947847        6.5020425255
  O        38.0247047934       33.1860824564       10.4148670196
  O        39.2192044808       31.5838520670        9.3262012150
  O        40.6522809434       33.7693162672       10.0601858999
  O        18.2554465650        1.3759104468        7.9968178146
  O        44.6222044420       35.1005628613        6.7587571693
  O        24.2053975943        0.0000282321        9.3208440332
  O        22.7531573499        2.0584853605       10.5840244966
  O        21.6243966588        3.5961181363        9.3424526697
  O        27.5326165471       18.6856841038        5.4155837299
  O        26.7642205119       16.9310145329        6.6444059254
  O        30.6671820197       19.4019508054        7.9843031166
  O        33.5814570775       16.2665009514        5.6516945910
  O        34.2726848656       18.1782982909        6.6642095752
  O        29.5898011363       17.0464330201        6.5731586106
  O        33.5598891234       16.3535742842       10.4054716058
  O        34.3051750558       18.2277727604        9.3356499570
  O        31.6597937160       18.3170252304       10.0702438923
  O        30.3241776844       15.1539388108        8.0716575398
  O        28.5566747403       21.0303943901        6.8199709616
  O        28.5089163984       20.9586087062        9.3931997950
  O        27.4638095153       18.6804376562       10.6526531311
  O        26.6963289284       16.9303622084        9.4083341932
  O        13.1489700502       18.6930178170       10.5873702306
  O        13.9196353323       16.9163037481        9.4051701495
  O        50.5959451816       19.3501722536        8.0206081807
  O        47.6820609307       16.3272969343       10.4171332942
  O        46.9513336248       18.1760531216        9.3241615871
  O        11.0697058514       17.0155627809        9.4896173513
  O        47.6766452320       16.3357508310        5.6528835971
  O        46.9247411342       18.2354959170        6.6626698752
  O        49.5685203262       18.3177326749        5.9822685787
  O        10.3186285067       15.1002329492        7.9971383219
  O        52.6707474836       21.0278887468        9.2418295780
  O        12.1468029364       20.8911826704        6.6732701418
  O        13.1075568443       18.6138231687        5.3256776832
  O        13.9573765815       16.9872513063        6.6651649761
  O        29.9704020954       14.5067700773       10.7362224372
  O        28.0832070669       14.6576037845        9.4836892001
  O        32.1364262645       16.8582607152        8.0083615625
  O        30.9604350937       20.9599042341       10.3293873693
  O        32.9595792838       20.5914566222        9.3232963825
  O        29.5626780553       17.0800188992        9.5582236935
  O        30.9021985359       20.8800112812        5.5781418886
  O        32.8779744950       20.5902019791        6.6579000407
  O        31.6830100347       18.2463419995        5.9135272856
  O        28.2875955126       18.6756050770        8.0039371937
  O        32.4895947248       14.2133043128        9.3228364896
  O        32.4032489377       14.2133306081        6.8220366138
  O        29.9061647541       14.4448627217        5.4178824957
  O        28.0510764355       14.5824406735        6.7390928302
  O        17.8892217756        1.9665992341       10.6628140061
  O        18.9561941607        3.5271228298        9.4080144502
  O        39.1686352184       34.1387231192        7.9972086357
  O        43.2802153839       33.0589864944       10.3316838381
  O        42.0344850802       31.5064813661        9.2416092617
  O        20.3176836493        1.0366452733        9.4802641833
  O        43.2760833535       33.1825925328        5.5749115735
  O        42.0053063424       31.5841009074        6.5829710587
  O        40.5789126016       33.7747969238        5.9357368341
  O        22.3672734558        1.3845077978        7.9980322206
  O        36.6727481031       35.0998311536        9.2332880699
  O        16.4455281849        0.0641148475        6.6682159080
  O        17.9363984314        2.0432308537        5.3263755730
  O        18.9189154976        3.5930736180        6.6659450457
  O        29.7932444547       18.7524138002        4.0140001048
  O        29.9089639551       18.9842074432       11.9090036343
  O        31.1785694715       16.3267209660        4.0097323607
  O        31.3153040825       16.4040053066       11.9997325654
  O        31.9278465785       16.9381502979        1.4324594010
  O        30.0880876138       15.9091657562       14.2370711903
  O        32.7825085442       16.7723949569       14.4059363835
  O        30.4048479000       19.1079260898        1.4134963056
  O        28.8053203439       18.3894855022       14.1519345804
  O        39.4568182191       35.2436648578        4.0019451887
  O        19.1417460289        0.0045913346       11.9905522648
  O        41.9696808183       35.1728855475        4.0872010879
  O        21.6915044237       -0.0690919638       11.8959563603
  O        51.3651463034       18.6143425592        4.0054472450
  O        10.7511025836       18.7472018401       11.9049692615
  O        50.0794625783       16.4127887786        4.0917350454
  O         9.5248539216       16.4830534252       11.9911737806
 Zr         9.2968917417       16.0526901036        6.1824618035
 Zr        49.8365143076       16.0069269034        9.7465591644
 Zr        22.0731702546        0.0296823515        6.1892080523
 Zr        42.4609663549       35.1534730823        9.8010695084
 Zr        29.6110649939       19.0549788496        6.1926362100
 Zr        29.5838872640       19.1930524914        9.7829766112
 Zr        11.0380674833       19.0519880969        9.8278662224
 Zr        11.0439036998       19.1547822572        6.2512088778
 Zr        31.3580185201       16.1205652495        9.8054763787
 Zr        31.3964839644       16.0112321236        6.2262157581
 Zr        18.6012274074       -0.0013319876        9.7634958573
 Zr        18.5063261064       -0.0080905498        6.2136766858
 Zr        12.3023722860       16.3236712225        7.9903544889
 Zr        48.6161273275       18.8329813582        8.0100258760
 Zr        20.3148971065        2.4732373352        7.9907533895
 Zr        40.6433734083       32.6869140667        7.9780731573
 Zr        28.3430103737       16.3435487635        8.0721570949
 Zr        32.6313989932       18.8470520508        7.9948730676
  H        32.4195641343       16.7139478129       13.4770777202
