     571
 i =       99, E =     -4761.6780700663
  C        11.8588480334       14.0535556547        5.7416140786
  C        12.4563763777       12.8906281035        5.0232957069
  C        11.7046581294       12.1716554348        4.0816917969
  C        12.2810366837       11.1094566049        3.3893340089
  C        13.6216402058       10.7397344830        3.6170150018
  C        14.3548546724       11.4433817303        4.5903883983
  C        13.7819616140       12.5083600683        5.2818976512
  C        14.2611480951        9.6490463383        2.8436237137
  C        14.2564329389        9.6569492352        1.4219208827
  C        13.7432815044       10.7590924973        0.6680297581
  C        49.1266867711       21.2332101803        5.8797848316
  C        48.5498752755       22.4011338889        5.1526741077
  C        49.2999149268       23.0684186637        4.1716665679
  C        48.7329966336       24.1075400328        3.4384309856
  C        47.4024641530       24.5091944951        3.6670455844
  C        46.6714963305       23.8603529263        4.6805665646
  C        47.2339408495       22.8154682843        5.4099570222
  C        46.7722449896       25.5868932575        2.8697586592
  C        46.7612680431       25.5573102023        1.4479951754
  C        47.2612263549       24.4422318195        0.7044974081
  C        14.8603138770        8.5705829581        0.7086497546
  C        14.8919085723        8.5970820824        3.5202678227
  C        49.1131916414       21.2034196506       10.1453574383
  C        48.5278235757       22.3648235935       10.8724903535
  C        49.2670808151       23.0255203719       11.8653920405
  C        48.6907803602       24.0600916359       12.5968556547
  C        47.3603741991       24.4568808694       12.3586257501
  C        46.6399415982       23.8120046937       11.3350989733
  C        47.2134620508       22.7760767881       10.6033153272
  C        46.7219342451       25.5318584138       13.1496513256
  C        46.7335954286       25.5281885518       14.5713566728
  C        47.2490095895       24.4289628557       15.3277356876
  C        40.6213482310       17.0843291851       15.3101368856
  C        40.6277098720       17.0973926467       12.5006404109
  C        11.8829925244       14.0865569330       10.2854899211
  C        12.4723203912       12.9107650581       10.9897463782
  C        11.7147662950       12.1775251536       11.9157911899
  C        12.2813383582       11.0950753457       12.5842284666
  C        13.6201877592       10.7214186636       12.3524837137
  C        14.3582250219       11.4370376938       11.3917760693
  C        13.7928092514       12.5182111682       10.7190747500
  C        14.2537527813        9.6246227368       13.1228642664
  C        14.2525177861        9.6445847692       14.5447007741
  C        13.7427066739       10.7535580744       15.2917754980
  C        22.5080920201        3.2434765119        5.7503508852
  C        23.2148080447        4.3481973229        5.0431717755
  C        24.2100323223        4.0677179009        4.0954552007
  C        24.8318600917        5.1068771298        3.4084402992
  C        24.4732722651        6.4479936976        3.6490823586
  C        23.5044465777        6.7200308532        4.6321045327
  C        22.8784585130        5.6827878317        5.3179249202
  C        25.0794508990        7.5545836804        2.8749541442
  C        25.0634435952        7.5468383586        1.4534242816
  C        24.3688024139        6.5463870793        0.7019958160
  C        38.3043417118       31.9287580470        5.8461994646
  C        37.5788696460       30.8396061594        5.1306720182
  C        36.6204691357       31.1445394322        4.1519776896
  C        36.0050451816       30.1255434957        3.4299279493
  C        36.3328348592       28.7757937311        3.6647732261
  C        37.2632250436       28.4783105709        4.6785078536
  C        37.8826330431       29.4960174455        5.3994843450
  C        35.7283323151       27.6844174587        2.8674841401
  C        35.7529153216       27.6998339587        1.4458315685
  C        36.4536573262       28.7035618984        0.7056428485
  C        25.6913580222        8.6171880972        0.7385585799
  C        25.6700470729        8.6299237911        3.5506302597
  C        38.3261040907       31.9625212824       10.1529619627
  C        37.5975040280       30.8893654331       10.8878461071
  C        36.6640441837       31.1984325531       11.8889235661
  C        36.0488572599       30.1799605952       12.6140093352
  C        36.3535466512       28.8274453068       12.3618901432
  C        37.2629295861       28.5282055911       11.3291259924
  C        37.8798069804       29.5432089790       10.6047285231
  C        35.7460921976       27.7288582519       13.1471764654
  C        35.7620384065       27.7226751917       14.5690197176
  C        36.4576874597       28.7147868579       15.3290060223
  C        46.1355682792       26.6208154634       15.2814925769
  C        46.0879997580       26.5802271788       12.4735969309
  C        22.4639297986        3.2559976274       10.2552788456
  C        23.1653013375        4.3648157209       10.9715823885
  C        24.1750986944        4.0787536548       11.9041966707
  C        24.8091354320        5.1090261864       12.5946353705
  C        24.4532961813        6.4549488293       12.3758128675
  C        23.4673970119        6.7344258460       11.4106934770
  C        22.8291715448        5.7044410596       10.7201335842
  C        25.0838163250        7.5521746821       13.1523172468
  C        25.0668046239        7.5449350690       14.5748571053
  C        24.3684697805        6.5467347789       15.3252729952
  C        26.6392531403       17.8293406940        5.7432853379
  C        25.3250241085       17.8851121884        5.0328237967
  C        25.0652963265       18.8802006068        4.0774890690
  C        23.8458545219       18.9096688511        3.4040018118
  C        22.8501119131       17.9451291253        3.6607582035
  C        23.1052077975       16.9744676329        4.6479368936
  C        24.3253920102       16.9418985501        5.3218699659
  C        21.5756422293       17.9341471317        2.8986569996
  C        21.5761738270       17.9115314368        1.4759573914
  C        22.7814787604       17.7798137912        0.7165878635
  C        34.4442775225       17.1902544240        5.9179468471
  C        35.7405060790       17.1340490732        5.1801395631
  C        35.9460092233       16.1600568624        4.1905844061
  C        37.1251422604       16.1457906083        3.4511239986
  C        38.1316520576       17.1035774717        3.6821791497
  C        37.9302975600       18.0564703901        4.6988640516
  C        36.7476754598       18.0768291342        5.4348955336
  C        39.3831125169       17.1109367229        2.8909931085
  C        39.3732884630       17.1163387467        1.4691923885
  C        38.1631517542       17.2358172911        0.7162266879
  C        20.3303807976       17.9348879644        0.7662420205
  C        20.3504350329       17.9398420861        3.5800922627
  C        34.4410227569       17.2414679597       10.1844700701
  C        35.7393766512       17.1401697662       10.9127149061
  C        35.9318472201       16.1741576067       11.9117686311
  C        37.1221196863       16.1408927383       12.6347228458
  C        38.1476402414       17.0727419956       12.3797947131
  C        37.9589358973       18.0126669888       11.3488197252
  C        36.7689389808       18.0509471440       10.6286699798
  C        39.3982633608       17.0861338735       13.1703961069
  C        39.3809149753       17.1048513705       14.5919105210
  C        38.1672813463       17.2295467839       15.3394782258
  C        35.1359495314       26.6425878455       15.2750902584
  C        35.1540863706       26.6580603279       12.4661042569
  C        26.5745307507       17.8291278154       10.3205520396
  C        25.2619165832       17.8691865317       11.0326935466
  C        25.0060409572       18.8634923787       11.9890099085
  C        23.7875797081       18.8906894271       12.6618611415
  C        22.7962791948       17.9224217599       12.4041262862
  C        23.0484674070       16.9514267596       11.4180057987
  C        24.2670402837       16.9230196651       10.7422092719
  C        21.5314483981       17.9060296756       13.1753254178
  C        21.5533641277       17.8951585422       14.5969869866
  C        22.7701095293       17.7717607301       15.3403005472
  C        14.0473686014       17.8296867410       10.2883509102
  C        15.3525660245       17.8888934069       11.0121878609
  C        15.6097517146       18.8943437594       11.9573819887
  C        16.8191824524       18.9171248341       12.6495392755
  C        17.8059923562       17.9372235635       12.4190188318
  C        17.5537275723       16.9563093385       11.4412094398
  C        16.3438358460       16.9290213976       10.7504742015
  C        19.0747727055       17.9202419476       13.1889171995
  C        19.0720606510       17.9186038206       14.6115774613
  C        17.8642762229       17.8246383651       15.3722715133
  C        46.8019141181       17.2155785761       10.1563231054
  C        45.5074355373       17.1437376115       10.8955024954
  C        45.3017612231       16.1581898677       11.8735856895
  C        44.1174371260       16.1290000298       12.6054665210
  C        43.1074151060       17.0852404227       12.3823408364
  C        43.3093270504       18.0491344936       11.3758121929
  C        44.4946223710       18.0821737355       10.6446078451
  C        41.8548139200       17.0896594590       13.1739468361
  C        41.8655452116       17.0945130694       14.5962764186
  C        43.0771776156       17.1925990958       15.3502942175
  C        20.3182540834       17.9257336583       15.3210077404
  C        20.2996427374       17.8982548179       12.5078269450
  C        46.7864666386       17.2323062805        5.8867286321
  C        45.4863226915       17.1277155592        5.1655985124
  C        45.2709261924       16.1276346006        4.2051969463
  C        44.0848561617       16.0987019761        3.4758967456
  C        43.0848892572       17.0671321229        3.6897614702
  C        43.2917246139       18.0386938707        4.6868699027
  C        44.4786780773       18.0736576937        5.4116704237
  C        41.8371808009       17.0839485075        2.8952198023
  C        41.8568845521       17.0901146469        1.4739925230
  C        43.0731690968       17.1878857073        0.7273442058
  C        46.1532884044       26.6372140928        0.7262516336
  C        46.1623179985       26.6560209984        3.5358880557
  C        14.0453754501       17.8321677782        5.7086475374
  C        15.3660501731       17.9076469540        5.0178605393
  C        15.6390302504       18.9248669535        4.0910498975
  C        16.8677640411       18.9636092069        3.4357779349
  C        17.8511614822       17.9841668910        3.6812480715
  C        17.5849840031       16.9958900564        4.6464629201
  C        16.3584046556       16.9567258571        5.3054286428
  C        19.1184139418       17.9600743613        2.9121870074
  C        19.0948473644       17.9381175612        1.4904954510
  C        17.8753580193       17.8332888139        0.7486052774
  C        28.7953458920       14.1218756966       10.3983311250
  C        28.1957411127       12.9445285022       11.0894956946
  C        28.9218232807       12.2097356556       12.0382050193
  C        28.3309517207       11.1249416433       12.6820990761
  C        26.9998468899       10.7531783389       12.4040339125
  C        26.2956509828       11.4706520588       11.4203170632
  C        26.8845250042       12.5533339261       10.7729906566
  C        26.3341565572        9.6666678615       13.1594413351
  C        26.3121741929        9.6915245459       14.5803576363
  C        26.8098122114       10.8042036147       15.3303869880
  C        32.1786945675       21.2484561707       10.1015051135
  C        32.7678832779       22.4100239377       10.8328153764
  C        32.0167955947       23.0776684192       11.8123817497
  C        32.5843725610       24.1132105989       12.5497332204
  C        33.9174147955       24.5095426934       12.3268930782
  C        34.6513397670       23.8580140004       11.3177204963
  C        34.0872280010       22.8162591925       10.5839383731
  C        34.5437671523       25.5867323976       13.1275826513
  C        34.5425027377       25.5581232261       14.5491802603
  C        34.0402895872       24.4415839658       15.2893756429
  C        25.6978587369        8.6127077193       15.2939706095
  C        25.7029961917        8.6153271781       12.4810996094
  C        32.1209091790       21.2005350408        5.8419850462
  C        32.7073477538       22.3622762851        5.1096091421
  C        31.9738570404       23.0224659232        4.1115976694
  C        32.5506305998       24.0603725288        3.3837149577
  C        33.8765880001       24.4665727017        3.6328526498
  C        34.5914369996       23.8218432613        4.6604528611
  C        34.0180240749       22.7805192689        5.3860929683
  C        34.5152319470       25.5488091492        2.8487279411
  C        34.5277205930       25.5387321134        1.4266500621
  C        34.0328672220       24.4326278788        0.6662600429
  C        40.6167402651       17.0863296684        0.7551394083
  C        40.6091383560       17.1115680902        3.5653872544
  C        28.7345625202       14.0664194476        5.7916575779
  C        28.1166575263       12.9177818203        5.0648440687
  C        28.8547465553       12.2016785314        4.1096879473
  C        28.2690848781       11.1463046566        3.4157479790
  C        26.9292908251       10.7796885179        3.6526633514
  C        26.2085031073       11.4801034751        4.6378138122
  C        26.7927466847       12.5369640597        5.3337072025
  C        26.2869672506        9.6916028369        2.8776933995
  C        26.2891032136        9.7045277819        1.4561058790
  C        26.7973316692       10.8112639376        0.7062105950
  C        18.1353527606        3.1810303515       10.3171987854
  C        17.4059624558        4.2782326862       11.0157042521
  C        16.3903975672        3.9998389189       11.9433906205
  C        15.7426486828        5.0398022313       12.6068785067
  C        16.0943754552        6.3835525241       12.3670489744
  C        17.0835460168        6.6531010671       11.4030688762
  C        17.7326611472        5.6157788243       10.7380142578
  C        15.4700975298        7.4912397445       13.1301275889
  C        15.4854197488        7.4905371691       14.5518389433
  C        16.1870149816        6.4969430184       15.3049975145
  C        42.9458923569       31.8595267367       10.0728857516
  C        43.6462912422       30.7718787331       10.8168185999
  C        44.5917831253       31.0932278502       11.8029226117
  C        45.1975228805       30.0876951475       12.5505737929
  C        44.8711703675       28.7346169049       12.3356774831
  C        43.9454244470       28.4202531221       11.3223972537
  C        43.3365711337       29.4253783268       10.5743683783
  C        45.4887543608       27.6553284574       13.1388741298
  C        45.4928832774       27.6809510035       14.5605668770
  C        44.8057798648       28.6889865400       15.3071908334
  C        14.8565138431        8.5630520856       15.2642197475
  C        14.8748632686        8.5630498189       12.4515583739
  C        42.9464849023       31.9615614494        5.8089602185
  C        43.6917268679       30.8854527774        5.0955159834
  C        44.6562574821       31.1913532552        4.1231466084
  C        45.2777617294       30.1717584890        3.4054227502
  C        44.9540468685       28.8214330144        3.6431189461
  C        44.0206529349       28.5237803973        4.6539887985
  C        43.3924100768       29.5405488932        5.3661710469
  C        45.5630316208       27.7240311286        2.8578459374
  C        45.5333298754       27.7173730515        1.4365483343
  C        44.8270223033       28.7076056827        0.6835852467
  C        35.1299843853       26.6318616192        0.7201823700
  C        35.1266996788       26.6082230312        3.5298613145
  C        18.1485198583        3.2469093172        5.7066164227
  C        17.4299821601        4.3437407809        4.9972973864
  C        16.4148082338        4.0525126922        4.0736730567
  C        15.7665246627        5.0831758210        3.3983090550
  C        16.1211787727        6.4284108529        3.6210846199
  C        17.1125311903        6.7117481709        4.5783896641
  C        17.7601663079        5.6828061778        5.2581417676
  C        15.4906907589        7.5241275882        2.8486623857
  C        15.4965413952        7.5074793294        1.4275273018
  C        16.1932796223        6.5057727485        0.6808106743
  H        10.6725016243       12.4657327954        3.9047414579
  H        11.6947342162       10.5509187474        2.6628473957
  H        15.3919382879       11.1689063667        4.7720094579
  H        14.3514767235       13.0716933889        6.0172122485
  H        13.3763383836       11.6312389217        1.2013562301
  H        50.3226239039       22.7483662713        3.9869517760
  H        49.3195026759       24.6227918544        2.6808601751
  H        45.6420126402       24.1611543329        4.8637347722
  H        46.6629464703       22.2902607593        6.1720879591
  H        47.6297577951       23.5758487523        1.2461765010
  H        14.8722859049        8.5883616105        4.6085777554
  H        50.2871221136       22.7026428051       12.0602858442
  H        49.2692003202       24.5755364352       13.3603460796
  H        45.6105421085       24.1092694199       11.1460438337
  H        46.6526177842       22.2539096059        9.8317708044
  H        47.6078289316       23.5518636412       14.7968317262
  H        40.6296495032       17.0601707944       11.4129159844
  H        48.6871894382       14.0949705945        7.8000560770
  H        10.6812670534       12.4665462909       12.0931055053
  H        11.6895251909       10.5246258446       13.2968619137
  H        15.3937180591       11.1592822598       11.2059896567
  H        14.3652302863       13.0876971677        9.9906965649
  H        13.3759282759       11.6221891768       14.7531337254
  H        47.9301521365       14.2187237827        9.7108040320
  H        47.7800637550       14.3738790613        6.4954718538
  H        49.0827867174       18.5518186810       10.8671805796
  H        10.4160136231       14.1343562228        7.9987665285
  H        24.4745387513        3.0293093432        3.9086858787
  H        25.6052804186        4.8899775078        2.6748400611
  H        23.2203075546        7.7527483065        4.8232756037
  H        22.1090391927        5.8825591853        6.0596577111
  H        23.8045695128        5.7887654778        1.2380308836
  H        36.3819643800       32.1879454678        3.9597114580
  H        35.2606641010       30.3663288774        2.6741490850
  H        37.5248263983       27.4390878779        4.8667701510
  H        38.6256793914       29.2735196068        6.1616556063
  H        37.0198163841       29.4542041367        1.2494081891
  H        25.6968742127        8.6126616090        4.6386605590
  H        36.4422732740       32.2427541313       12.0967895070
  H        35.3203855173       30.4247272112       13.3838558769
  H        37.5090654260       27.4877871396       11.1274184938
  H        38.6050767823       29.3175765726        9.8267774311
  H        37.0279062661       29.4736575522       14.8010397564
  H        46.1094509167       26.5876325663       11.3855618300
  H        44.6682470636       35.1161710913        7.8139894635
  H        24.4532086993        3.0404132136       12.0701533643
  H        25.5945832835        4.8799893617       13.3117417148
  H        23.1809431129        7.7689332181       11.2324974034
  H        22.0519716681        5.9176646226        9.9898469089
  H        23.8035086738        5.7898050323       14.7890456332
  H        44.9537202395       34.3902051501        9.6950427967
  H        44.9017901555       34.2068408564        6.4906243605
  H        40.6652894927       33.2086055400       10.8527991777
  H        23.1503089857        1.9578880585        8.0040391880
  H        25.8311120066       19.6260171030        3.8777380932
  H        23.6500745356       19.6878656774        2.6693704164
  H        22.3482561908       16.2210950676        4.8565311294
  H        24.5321526675       16.1789992178        6.0688279002
  H        23.7209963699       17.6535617168        1.2466389976
  H        35.1630764392       15.4271588885        4.0104209117
  H        37.2828601512       15.3841680310        2.6905810946
  H        38.6996917198       18.8037760406        4.8818203618
  H        36.5746929400       18.8283180985        6.2018569612
  H        37.2261357384       17.3645293812        1.2505982928
  H        20.3563795918       17.9796084900        4.6679814583
  H        35.1324711706       15.4666575364       12.1207476970
  H        37.2695782041       15.3871747738       13.4050522499
  H        38.7430788742       18.7393133516       11.1464898474
  H        36.6033062732       18.7948553148        9.8530884264
  H        37.2326624043       17.3529151711       14.8002863760
  H        35.1225425462       26.6842243819       11.3785168457
  H        28.5015107527       21.0834609765        7.8058038876
  H        25.7754291093       19.6063876074       12.1872160501
  H        23.5884910768       19.6674642115       13.3970206335
  H        22.2922872769       16.1962516280       11.2133134973
  H        24.4765941106       16.1626930302        9.9935660451
  H        23.7009909957       17.6393734531       14.7971287478
  H        28.9759594845       21.7377044400        9.6693675722
  H        29.1968554526       21.7143643002        6.4837800297
  H        32.0802689790       18.6306895137       10.9061366407
  H        27.3962773298       19.0649846238        8.0153008182
  H        14.8512295783       19.6535619516       12.1344984558
  H        17.0144566003       19.7031281930       13.3759033365
  H        18.3050233541       16.1918296741       11.2538815821
  H        16.1379638181       16.1582137589       10.0115763788
  H        16.9216181442       17.7124045932       14.8445539462
  H        46.0877487521       15.4287713118       12.0545714954
  H        43.9607572529       15.3575722422       13.3562778953
  H        42.5380810301       18.7956909529       11.1977542490
  H        44.6656443548       18.8416029559        9.8851359944
  H        44.0169939863       17.3035053029       14.8170253409
  H        20.2944881518       17.9286842932       11.4196951439
  H        46.0482914845       15.3868038973        4.0326811959
  H        43.9199031745       15.3215838883        2.7327548109
  H        42.5247130732       18.7911821976        4.8577615886
  H        44.6592567949       18.8418742047        6.1595428784
  H        44.0100398568       17.2942542143        1.2665759555
  H        46.1991815627       26.6825560756        4.6233323787
  H        52.7411879431       21.0626555913        8.1946856684
  H        14.8784437121       19.6789700727        3.9010347155
  H        17.0786046306       19.7556202682        2.7203904589
  H        18.3356744001       16.2333686185        4.8437683537
  H        16.1377783601       16.1808968115        6.0345485321
  H        16.9410197521       17.7277492717        1.2916928317
  H        52.3225178048       21.6733346599        6.2943085094
  H        52.0133461425       21.7021959301        9.4956493396
  H        49.0678846641       18.6078947486        5.2040248854
  H        13.2475268018       19.0163450745        7.9772432180
  H        29.9462157535       12.5019825997       12.2578871193
  H        28.8962105919       10.5531258229       13.4148602328
  H        25.2667555148       11.1947600171       11.1986603170
  H        26.3385566374       13.1270782925       10.0281954861
  H        27.1767389296       11.6735452446       14.7932293074
  H        30.9923397302       22.7586824967       11.9899009034
  H        31.9968818407       24.6308013225       13.3049890948
  H        35.6833366688       24.1540992583       11.1408305983
  H        34.6595063552       22.2876478517        9.8250063297
  H        33.6847674456       23.5722740808       14.7435230971
  H        25.7382065622        8.5978479960       11.3931924828
  H        30.9532634859       22.7025125889        3.9145243145
  H        31.9743959368       24.5743542175        2.6174212901
  H        35.6173500599       24.1246889217        4.8597104882
  H        34.5757556623       22.2608405520        6.1617760208
  H        33.6730728412       23.5553982010        1.1962038799
  H        40.6067724784       17.0797936548        4.6532458287
  H        32.5161452112       14.1496070948        8.2510554114
  H        29.8904017316       12.4820980858        3.9320241427
  H        28.8480845353       10.5873847792        2.6837523789
  H        25.1721495064       11.2082375631        4.8276415925
  H        26.2333667003       13.0946000633        6.0812523430
  H        27.1535567304       11.6857807483        1.2427284708
  H        33.2958089516       14.1820711641        6.4378433465
  H        33.4036068850       14.3909736366        9.6133188959
  H        32.1479565579       18.5222512314        5.1182156492
  H        30.2264199387       14.1901671830        8.0832793791
  H        16.1184721384        2.9633238202       12.1299205290
  H        14.9533036733        4.8203969330       13.3226450162
  H        17.3658109253        7.6859938545       11.2098032643
  H        18.5145316897        5.8184808777       10.0100019570
  H        16.7535858363        5.7396174620       14.7714983608
  H        44.8280133130       32.1403162316       11.9771366440
  H        45.9373633045       30.3414645475       13.3065377098
  H        43.6828159817       27.3781712585       11.1522263166
  H        42.6000204564       29.1900051485        9.8096532276
  H        44.2304546171       29.4367723343       14.7688815805
  H        14.8510862668        8.5463187444       11.3633392792
  H        44.8997796249       32.2340315238        3.9316558211
  H        46.0246355003       30.4129743821        2.6521508215
  H        43.7637991174       27.4840442858        4.8456563174
  H        42.6460254841       29.3177499261        6.1247265924
  H        44.2685102411       29.4704964947        1.2181567765
  H        35.0875257977       26.6211322020        4.6174703156
  H        36.6050459622       35.1340261090        8.1806493803
  H        16.1436997992        3.0129475030        3.9039209348
  H        14.9742032911        4.8563695684        2.6882062643
  H        17.3960291570        7.7472108680        4.7553345850
  H        18.5429809206        5.8932476976        5.9829736293
  H        16.7647596421        5.7555540031        1.2192306026
  H        36.2783354122       34.4824947855        6.2731374562
  H        36.3806669029       34.2093550287        9.4997950539
  H        40.5807389472       33.2027499552        5.1532886921
  H        17.4707585520        1.9472960824        7.9741319845
  H        29.0570986425       19.5268330778       12.3665818416
  H        29.2371697417       19.4024904044        3.4790522989
  H        30.5748785697       15.5739066679        3.8550789793
  H        30.9478617876       15.5602400210       12.4114406062
  H        27.7586151688       17.9052424129       14.4279866283
  H        29.1594852383       15.5966109537       14.6828607501
  H        30.9429941411       19.9275852060        1.1750178670
  H        32.3258368333       16.1036901139        1.8456478594
  H        33.1786443694       17.5672037861       14.3645844114
  H        18.8533916048        0.8689743618       12.3353188286
  H        40.5280155063       35.2290988912        3.9520153956
  H        42.3242588623       34.4191192527        3.5902667677
  H        22.0876706925        0.6922369653       12.3516792943
  H        11.5970028579       18.7128854043       12.3824470299
  H        52.2651554255       18.4313028954        3.6775974493
  H        49.2553926391       16.4768905230        3.5844994262
  H        10.1508509422       15.7982438954       12.2925506930
  H        50.8503081006       17.6924418668        3.9541973695
  H        10.0463533640       17.3946474747       12.0519603394
  H        20.2145678482        0.0021537461       12.0420313412
  H        39.1836848233       36.1246446527        3.6866474322
 Ni        30.8266201804       17.7869175280        2.7464811691
 Ni        31.1544195835       16.5733324411       -0.3317847631
 Ni        29.8021283538       18.5748929264       -0.4983589675
 Ni        29.8887577796       17.4964236595       13.0764392361
  O        10.6500380919       14.3650847596        5.4858738156
  O        12.6132151389       14.6575709858        6.5839545960
  O        49.1478606474       16.8459368280        7.9898722541
  O        50.3501180269       20.9360087686        5.6481724498
  O        48.3484785849       20.5932531505        6.6660148202
  O        11.0518139912       17.0538025900        6.5007427056
  O        50.3209519602       20.8816633911       10.4068449411
  O        48.3466954188       20.5867096382        9.3271535759
  O        49.5435393720       18.2484109687       10.0682805136
  O        12.3590394618       18.6246208109        7.9997214416
  O        48.6932564585       14.1485580957        6.7513280757
  O         8.2098937568       14.2104645064        9.3225671645
  O        10.7353543480       14.5067255763       10.6643187294
  O        12.5718286749       14.5828283675        9.3284981204
  O        22.8442293951        2.0427107673        5.4872325928
  O        21.6048535375        3.5918360860        6.5900722490
  O        42.0581859402       34.1373333856        7.9791019038
  O        37.9817382885       33.1371457032        5.5722272613
  O        39.2178460578       31.5756509704        6.6662067840
  O        20.3083316369        1.0395402889        6.5020968993
  O        38.0248033228       33.1862699407       10.4148485376
  O        39.2191737903       31.5838467820        9.3262699422
  O        40.6522980806       33.7693490464       10.0602169273
  O        18.2553997215        1.3760578315        7.9967909193
  O        44.6222105945       35.1005630958        6.7587848852
  O        24.2054243827       -0.0000118924        9.3208215412
  O        22.7531545382        2.0578125306       10.5837898351
  O        21.6247016859        3.5962681573        9.3429610372
  O        27.5363435975       18.6835824268        5.4145056980
  O        26.7655501816       16.9305836842        6.6463463664
  O        30.6673271031       19.4061610166        7.9890717760
  O        33.5881504902       16.2760928885        5.6629573870
  O        34.2778363624       18.1673726747        6.7295760405
  O        29.5871426150       17.0510975723        6.5736424458
  O        33.5552102211       16.3428806602       10.4164879212
  O        34.3022702121       18.2413691873        9.4052607794
  O        31.6510416986       18.3224202967       10.0917215264
  O        30.3242253624       15.1565754803        8.0788457205
  O        28.5552617218       21.0302344110        6.7505437682
  O        28.5092419930       20.9609742459        9.3174867311
  O        27.4591771514       18.6817481949       10.6510905367
  O        26.6958607187       16.9297371055        9.4085830155
  O        13.1488179212       18.6930364411       10.5873849319
  O        13.9196658845       16.9163637074        9.4052525287
  O        50.5960170081       19.3501886095        8.0206822409
  O        47.6827183698       16.3270229487       10.4172783898
  O        46.9502107751       18.1755705376        9.3256467073
  O        11.0697388393       17.0155421941        9.4896016367
  O        47.6765433177       16.3356232872        5.6531585445
  O        46.9265214658       18.2357443274        6.6640157773
  O        49.5686989492       18.3177048300        5.9823947998
  O        10.3186446921       15.1002061802        7.9971027375
  O        52.6707306734       21.0278839848        9.2418258038
  O        12.1468150849       20.8912043239        6.6732707154
  O        13.1076132708       18.6138158317        5.3256940161
  O        13.9573561352       16.9872595608        6.6651991775
  O        29.9669245631       14.5088715506       10.7413756746
  O        28.0826726084       14.6571995054        9.4850211503
  O        32.1356144801       16.8590114130        8.0628068152
  O        30.9597445882       20.9669922928       10.3255416772
  O        32.9600289805       20.5928528375        9.3253700236
  O        29.5621970347       17.0834326158        9.5686240620
  O        30.9092962005       20.8821588291        5.5782347276
  O        32.8818070491       20.5870248344        6.6606244361
  O        31.6857430712       18.2441007733        5.9253287274
  O        28.2860003855       18.6761185592        8.0054767741
  O        32.4888404239       14.2137585166        9.3282859772
  O        32.4046037788       14.2113985723        6.8235758218
  O        29.9035363260       14.4392967586        5.4230941681
  O        28.0492067861       14.5828838084        6.7421108087
  O        17.8892219581        1.9666474184       10.6628157577
  O        18.9562193150        3.5271546972        9.4080103056
  O        39.1686407393       34.1387778605        7.9972053169
  O        43.2802112064       33.0589649608       10.3317036477
  O        42.0344997275       31.5064579014        9.2416256345
  O        20.3176996432        1.0366855566        9.4802414716
  O        43.2760915648       33.1825627128        5.5749051815
  O        42.0052882631       31.5841005499        6.5829875273
  O        40.5789185036       33.7748761820        5.9358076088
  O        22.3672622734        1.3845601417        7.9980502438
  O        36.6727278967       35.0998506918        9.2332532421
  O        16.4455314273        0.0641777522        6.6682399251
  O        17.9364341448        2.0432646148        5.3264095739
  O        18.9189530880        3.5930719728        6.6659627408
  O        29.8294490422       18.8324870456        4.0004068486
  O        29.8207373710       19.1158664959       11.9169712669
  O        31.2228425406       16.2663543002        4.0854725498
  O        31.3052073127       16.4085890981       12.0711699294
  O        31.8820389267       16.8571762302        1.4163415358
  O        30.0290967709       15.8289783873       14.3174401683
  O        32.7366499422       16.7031699033       14.3158601181
  O        30.4104713766       19.1159684757        1.1690085115
  O        28.5131625194       18.4573344096       14.1601877859
  O        39.4568114055       35.2439309914        4.0019759036
  O        19.1412674067        0.0045008197       11.9905715962
  O        41.9695744904       35.1726545456        4.0871881633
  O        21.6913558658       -0.0692232117       11.8960079417
  O        51.3652005482       18.6143229260        4.0054505938
  O        10.7511499459       18.7471765170       11.9049720692
  O        50.0798327136       16.4127468296        4.0917499450
  O         9.5248294052       16.4830377187       11.9912107972
 Zr         9.2972401024       16.0527263724        6.1824864822
 Zr        49.8366091293       16.0068238557        9.7465419827
 Zr        22.0732006151        0.0297550350        6.1892076229
 Zr        42.4609908323       35.1535416904        9.8012009546
 Zr        29.6185937793       19.0567389810        6.2132089255
 Zr        29.5710627701       19.2037717845        9.7992971936
 Zr        11.0382772993       19.0519065617        9.8278753539
 Zr        11.0440433008       19.1547920351        6.2511114269
 Zr        31.3517342568       16.1204815193        9.8512196165
 Zr        31.4017027354       16.0049299370        6.2491146610
 Zr        18.6012448608       -0.0011665522        9.7633670823
 Zr        18.5064187087       -0.0077943246        6.2137233395
 Zr        12.3026120154       16.3236861389        7.9904056810
 Zr        48.6164318279       18.8329698075        8.0105777928
 Zr        20.3150724189        2.4734527670        7.9908997241
 Zr        40.6435303189       32.6871148683        7.9782013203
 Zr        28.3467074055       16.3459383814        8.0737351733
 Zr        32.6275560197       18.8411220965        8.0265511085
  H        32.3336435113       16.6401388830       13.3796477525
