     571
 i =      178, E =     -4761.6200377606
  C        11.8588865460       14.0537262793        5.7417104392
  C        12.4566624918       12.8907616816        5.0232472703
  C        11.7052894981       12.1723115972        4.0810232353
  C        12.2817203929       11.1101632549        3.3886079398
  C        13.6220682565       10.7399488839        3.6168931009
  C        14.3549179209       11.4430456739        4.5909284688
  C        13.7819390941       12.5079693406        5.2824751005
  C        14.2616851311        9.6493518115        2.8435047122
  C        14.2572513198        9.6573816334        1.4218017051
  C        13.7442897988       10.7596008843        0.6678789577
  C        49.1172812962       21.2083143893        5.8515209155
  C        48.5488743721       22.3866629548        5.1454380625
  C        49.2611883088       23.0044467750        4.1036326309
  C        48.6878960215       24.0434957328        3.3807287353
  C        47.3895862262       24.5108680341        3.6859119960
  C        46.7086835925       23.9208859371        4.7739507764
  C        47.2728566326       22.8672813766        5.4837441097
  C        46.7461802553       25.5714725060        2.9019032456
  C        46.7611535858       25.5563338592        1.4466215685
  C        47.2143281319       24.4456352526        0.7195258280
  C        14.8611306710        8.5710029374        0.7085463923
  C        14.8921952851        8.5972324700        3.5201357174
  C        49.1195897319       21.2061629996       10.1404130006
  C        48.5409772326       22.3723319169       10.8553702576
  C        49.2431719283       22.9811934827       11.9090885595
  C        48.6576738351       24.0058805351       12.6423998983
  C        47.3564165480       24.4658187976       12.3366803936
  C        46.6841593894       23.8812590689       11.2396203672
  C        47.2608183802       22.8434131864       10.5188218948
  C        46.7039229396       25.5201685420       13.1184727156
  C        46.7378603477       25.5296002158       14.5730198843
  C        47.2046517585       24.4331865066       15.3132550419
  C        40.6208432439       17.0840832378       15.3098282239
  C        40.6276482972       17.0997240457       12.5002952926
  C        11.8828920395       14.0866409314       10.2854073042
  C        12.4722513522       12.9106079964       10.9895851749
  C        11.7150033501       12.1778795826       11.9162378520
  C        12.2815992900       11.0954351003       12.5846923146
  C        13.6201762593       10.7212505753       12.3522952706
  C        14.3578248887       11.4362606415       11.3908451441
  C        13.7923720566       12.5174346033       10.7181671466
  C        14.2539228582        9.6246201224       13.1227291280
  C        14.2531478634        9.6448633128       14.5445663743
  C        13.7436115917       10.7539872388       15.2916222502
  C        22.5076058558        3.2431355001        5.7500355924
  C        23.2135920480        4.3485659031        5.0421142247
  C        24.2104384271        4.0687356504        4.0960242921
  C        24.8318568367        5.1082819568        3.4090440775
  C        24.4711150559        6.4490077233        3.6483474709
  C        23.5001633556        6.7205204697        4.6293194133
  C        22.8747039022        5.6828191247        5.3150610045
  C        25.0772884053        7.5559136292        2.8744457072
  C        25.0613882260        7.5483822197        1.4529175163
  C        24.3670237263        6.5476364831        0.7016273516
  C        38.3045195703       31.9284614302        5.8460847907
  C        37.5793645073       30.8386685824        5.1299952616
  C        36.6186060860       31.1429782431        4.1534924930
  C        36.0032812678       30.1236540558        3.4316171470
  C        36.3334329379       28.7742091197        3.6648068641
  C        37.2666952142       28.4772185042        4.6759528815
  C        37.8861281950       29.4953545775        5.3965327373
  C        35.7281989135       27.6827856781        2.8677180645
  C        35.7521552044       27.6984317952        1.4460224385
  C        36.4540170714       28.7016319101        0.7061626488
  C        25.6894316395        8.6186455999        0.7380462190
  C        25.6679490915        8.6312085938        3.5500998786
  C        38.3268034460       31.9624645079       10.1531274412
  C        37.5989843720       30.8889177075       10.8891858859
  C        36.6644281963       31.1978614814       11.8891588348
  C        36.0492437517       30.1792887455       12.6142206968
  C        36.3551098679       28.8269671632       12.3628001616
  C        37.2664096343       28.5277553416       11.3318245145
  C        37.8833757868       29.5429563921       10.6076480847
  C        35.7464152904       27.7284613408       13.1474243843
  C        35.7616030653       27.7218564767       14.5692793714
  C        36.4582809338       28.7130851389       15.3295267561
  C        46.1671218587       26.6387449763       15.2816745687
  C        46.0355216031       26.5498681264       12.4502552481
  C        22.4636407844        3.2556432158       10.2550420212
  C        23.1649497189        4.3649262200       10.9715425369
  C        24.1753243754        4.0791017426       11.9034728373
  C        24.8091183131        5.1095442610       12.5939895649
  C        24.4522616612        6.4551956065       12.3755831672
  C        23.4656667866        6.7345259621       11.4112202391
  C        22.8277468039        5.7043031232       10.7206896750
  C        25.0825278197        7.5526734009       13.1519799275
  C        25.0651139449        7.5460557003       14.5745189539
  C        24.3668444075        6.5477875049       15.3249091274
  C        26.6388836915       17.8309939121        5.7432427380
  C        25.3252107215       17.8870444579        5.0327337424
  C        25.0655180672       18.8820975380        4.0772154797
  C        23.8461176610       18.9115958777        3.4037413024
  C        22.8500596546       17.9472712486        3.6605754587
  C        23.1049875854       16.9769719715        4.6482181313
  C        24.3251581540       16.9442114380        5.3220651624
  C        21.5757240811       17.9362263583        2.8983332419
  C        21.5766539375       17.9139454269        1.4756546927
  C        22.7820648460       17.7823815113        0.7164242567
  C        34.4445676321       17.1899271667        5.9172295196
  C        35.7403764090       17.1336571333        5.1799294880
  C        35.9476325562       16.1571341840        4.1930937956
  C        37.1267076343       16.1428109957        3.4536826262
  C        38.1316687971       17.1029557758        3.6819585356
  C        37.9287535511       18.0582706097        4.6960833732
  C        36.7461927764       18.0787321732        5.4321298925
  C        39.3830446505       17.1102491999        2.8906628454
  C        39.3728047258       17.1144672519        1.4689102050
  C        38.1624562306       17.2317468879        0.7159449142
  C        20.3310012988       17.9370859532        0.7656967819
  C        20.3503747942       17.9413940216        3.5795993887
  C        34.4411894476       17.2415076892       10.1850019129
  C        35.7391099856       17.1404277655       10.9126976920
  C        35.9330754014       16.1725574262       11.9097764483
  C        37.1234513437       16.1394356317       12.6323583856
  C        38.1476610210       17.0733609853       12.3794316618
  C        37.9575672306       18.0151104551       11.3503493080
  C        36.7675453411       18.0531903066       10.6303442142
  C        39.3981991230       17.0867913699       13.1700751090
  C        39.3804360323       17.1037155863       14.5915737619
  C        38.1665699257       17.2259238148       15.3391815269
  C        35.1334369460       26.6427306181       15.2749716272
  C        35.1537908153       26.6583107919       12.4658954100
  C        26.5759390987       17.8294505881       10.3213254579
  C        25.2636323298       17.8706070767       11.0332282929
  C        25.0076749083       18.8652648796       11.9893328196
  C        23.7890239008       18.8927958626       12.6618528828
  C        22.7974010636       17.9247078975       12.4041008967
  C        23.0496779990       16.9536392653       11.4180443682
  C        24.2683995948       16.9247260687       10.7426282840
  C        21.5323763295       17.9085339250       13.1749706073
  C        21.5542812391       17.8978564961       14.5965841873
  C        22.7708697219       17.7743752299       15.3401446425
  C        14.0469988573       17.8300265746       10.2881549617
  C        15.3529307033       17.8895898816       11.0119363295
  C        15.6107366037       18.8961516568       11.9556668297
  C        16.8203835771       18.9194243029       12.6476321204
  C        17.8066690428       17.9388227604       12.4181647963
  C        17.5537846087       16.9565715929       11.4419243364
  C        16.3436325837       16.9289082287       10.7514662418
  C        19.0756476616       17.9222659161       13.1880669376
  C        19.0729946875       17.9205346954       14.6107847162
  C        17.8650973185       17.8263521190       15.3712923650
  C        46.8022211594       17.2161556814       10.1562718802
  C        45.5076155248       17.1450220702       10.8960946593
  C        45.3000455496       16.1574022196       11.8715598444
  C        44.1155960485       16.1286356638       12.6033569605
  C        43.1075664807       17.0874032825       12.3824137219
  C        43.3115791663       18.0539544300       11.3789901053
  C        44.4970531218       18.0865136207       10.6479435355
  C        41.8546577549       17.0915399534       13.1737073452
  C        41.8650536872       17.0953648566       14.5960227069
  C        43.0767622524       17.1931177476       15.3499644673
  C        20.3190861074       17.9280155984       15.3204387553
  C        20.3006502500       17.9005577066       12.5072064141
  C        46.7864991068       17.2325716854        5.8865308818
  C        45.4863366704       17.1285768673        5.1645519027
  C        45.2696457665       16.1267894137        4.2063432326
  C        44.0835151451       16.0979281355        3.4770265681
  C        43.0850192246       17.0681851390        3.6890493008
  C        43.2933263837       18.0419973092        4.6835335203
  C        44.4803940831       18.0768430216        5.4082494715
  C        41.8370338208       17.0845404752        2.8947738179
  C        41.8564195731       17.0903053149        1.4735647659
  C        43.0727713395       17.1881077967        0.7270045998
  C        46.1828312448       26.6539579746        0.7265192381
  C        46.1031739757       26.6211192456        3.5622457493
  C        14.0452157455       17.8319527978        5.7086793085
  C        15.3662643596       17.9076408799        5.0175273726
  C        15.6391111795       18.9253453697        4.0913159814
  C        16.8677410742       18.9644653888        3.4357174523
  C        17.8510037868       17.9847925439        3.6804690784
  C        17.5848313727       16.9956185553        4.6447205272
  C        16.3583416713       16.9562273045        5.3039796937
  C        19.1184463181       17.9613608052        2.9115158856
  C        19.0953367547       17.9396225804        1.4897660001
  C        17.8759684526       17.8348045496        0.7476550547
  C        28.7953649271       14.1212800214       10.3981169134
  C        28.1962299960       12.9438124560       11.0884745254
  C        28.9223188430       12.2075790555       12.0361806272
  C        28.3307835619       11.1234261640       12.6803981811
  C        26.9990578799       10.7530510859       12.4032645586
  C        26.2951754975       11.4711213974       11.4197067785
  C        26.8844956750       12.5535316934       10.7724475483
  C        26.3329066161        9.6670417337       13.1588843103
  C        26.3108302287        9.6924259594       14.5797477514
  C        26.8085886759       10.8051430235       15.3296237610
  C        32.1779627572       21.2475024679       10.1030050873
  C        32.7653670748       22.4103121295       10.8327434645
  C        32.0127225872       23.0819445918       11.8085604874
  C        32.5801122977       24.1179334867       12.5453547558
  C        33.9146720618       24.5112489260       12.3258826255
  C        34.6498845657       23.8565905098       11.3196131266
  C        34.0860009887       22.8144083928       10.5863331821
  C        34.5412008472       25.5880552999       13.1270642082
  C        34.5380941411       25.5595526774       14.5486450817
  C        34.0325892795       24.4443437036       15.2886453071
  C        25.6960903363        8.6139653915       15.2934869566
  C        25.7018487507        8.6156079270       12.4806165299
  C        32.1182954918       21.2002248064        5.8416256426
  C        32.7046873498       22.3610905779        5.1086183366
  C        31.9691151921       23.0259137774        4.1150951598
  C        32.5461213207       24.0637486510        3.3872818156
  C        33.8742068000       24.4658635519        3.6321890269
  C        34.5911884710       23.8166263955        4.6554610047
  C        34.0177407215       22.7751099101        5.3807361948
  C        34.5128433297       25.5484215992        2.8483615701
  C        34.5233934411       25.5394052002        1.4263077033
  C        34.0251902052       24.4350399199        0.6655540662
  C        40.6162360428       17.0856656774        0.7547990363
  C        40.6090844204       17.1122349156        3.5650635805
  C        28.7340511010       14.0661423198        5.7912649637
  C        28.1162072688       12.9180312235        5.0647629038
  C        28.8537806951       12.2022256621        4.1088274792
  C        28.2676425546       11.1472556802        3.4147797202
  C        26.9278613781       10.7805237224        3.6521445394
  C        26.2077758817       11.4804556208        4.6382350693
  C        26.7923725082       12.5369650875        5.3342505446
  C        26.2851396991        9.6927779524        2.8771042200
  C        26.2874506566        9.7058511128        1.4555318868
  C        26.7958995015       10.8123987212        0.7054635604
  C        18.1354940458        3.1807988561       10.3170672813
  C        17.4060454974        4.2781498321       11.0156478521
  C        16.3909610724        3.9997763575       11.9438162604
  C        15.7432212501        5.0397465875       12.6073288706
  C        16.0944991830        6.3835068629       12.3669975314
  C        17.0831462916        6.6530293932       11.4024895573
  C        17.7322327937        5.6156779315       10.7374408016
  C        15.4703405537        7.4912543838       13.1300512887
  C        15.4860697951        7.4908198574       14.5517544258
  C        16.1878587178        6.4973583271       15.3049242992
  C        42.9488421802       31.8608142111       10.0687605119
  C        43.6552031119       30.7748460719       10.8011054453
  C        44.5509425829       31.0928771792       11.8354805203
  C        45.1466642462       30.0853074085       12.5839685378
  C        44.8760142701       28.7253781610       12.3138067260
  C        44.0109066522       28.4184495516       11.2400338769
  C        43.4010040047       29.4267618804       10.5022428835
  C        45.4729155368       27.6454270092       13.1081501579
  C        45.5051821947       27.6891801146       14.5624081464
  C        44.8091612376       28.6631626915       15.2935940564
  C        14.8572396080        8.5633960958       15.2641127671
  C        14.8747946329        8.5628774927       12.4514698624
  C        42.9517520735       31.9624173527        5.8145129885
  C        43.7063395174       30.8903068313        5.1169027429
  C        44.6131724802       31.1903566237        4.0859680116
  C        45.2215459846       30.1680992481        3.3662259645
  C        44.9615873830       28.8117739017        3.6687421728
  C        44.1016748147       28.5256587262        4.7526766855
  C        43.4729818813       29.5455582156        5.4541791714
  C        45.5439306258       27.7129848681        2.8915808589
  C        45.5430948169       27.7237041176        1.4364261445
  C        44.8293940202       28.6807899544        0.6997773578
  C        35.1274415624       26.6316663261        0.7200768050
  C        35.1262967749       26.6065517839        3.5298616350
  C        18.1485978682        3.2467941420        5.7067134530
  C        17.4300630510        4.3438048016        4.9973323768
  C        16.4153411516        4.0526362205        4.0732383112
  C        15.7671591655        5.0833330047        3.3978022987
  C        16.1214552610        6.4285741107        3.6210200431
  C        17.1122951184        6.7118489616        4.5788617123
  C        17.7598185222        5.6828539897        5.2586541698
  C        15.4911610276        7.5243618258        2.8485716529
  C        15.4972960284        7.5078701729        1.4274407074
  C        16.1941680296        6.5062418970        0.6807360846
  H        10.6733361953       12.4668683558        3.9036618664
  H        11.6956429784       10.5520331257        2.6616289825
  H        15.3917682369       11.1680676542        4.7731196777
  H        14.3510465294       13.0708792240        6.0184329752
  H        13.3774450182       11.6317904330        1.2012021854
  H        50.2580131785       22.6413348534        3.8647837233
  H        49.2453838692       24.5170900138        2.5760329807
  H        45.7063731721       24.2663298990        5.0181723178
  H        46.7325297012       22.3812062976        6.2927317491
  H        47.5498020734       23.5602875460        1.2511375406
  H        14.8722229567        8.5883295638        4.6084355841
  H        50.2406847916       22.6204457352       12.1492883051
  H        49.2085092967       24.4755031654       13.4538574221
  H        45.6790314969       24.2190483126       10.9966114370
  H        46.7277701600       22.3614418381        9.7026849702
  H        47.5334385364       23.5388670867       14.7924480190
  H        40.6299203551       17.0640083661       11.4125166284
  H        48.6872689685       14.0951712730        7.8005868871
  H        10.6817367261       12.4674388612       12.0940538574
  H        11.6900162841       10.5254213632       13.2978662267
  H        15.3930496293       11.1579374489       11.2044113773
  H        14.3643865480       13.0864760235        9.9891211433
  H        13.3768487192       11.6226003434       14.7529341620
  H        47.9299650861       14.2195616232        9.7104600908
  H        47.7798531626       14.3744049509        6.4960990622
  H        49.0834890078       18.5564709679       10.8648650840
  H        10.4160788854       14.1342777627        7.9991397685
  H        24.4765766666        3.0304964748        3.9105315588
  H        25.6066076149        4.8918281300        2.6767011495
  H        23.2139782496        7.7529425178        4.8190579780
  H        22.1037303900        5.8818555406        6.0553844143
  H        23.8031714983        5.7898735599        1.2378878948
  H        36.3782183953       32.1862260032        3.9626595142
  H        35.2572064542       30.3640734104        2.6773702476
  H        37.5309016494       27.4383252572        4.8624391459
  H        38.6318497212       29.2734566650        6.1562815702
  H        37.0208130891       29.4514977241        1.2503787083
  H        25.6946177886        8.6137644947        4.6381327563
  H        36.4417368452       32.2421740953       12.0961071028
  H        35.3198888410       30.4239320947       13.3832843978
  H        37.5141917692       27.4874883247       11.1313291016
  H        38.6103491689       29.3177244272        9.8311545288
  H        37.0294030624       29.4713286074       14.8016126038
  H        46.0421985564       26.5496484824       11.3620211114
  H        44.6689176361       35.1153924210        7.8132156912
  H        24.4539468783        3.0407965019       12.0688744797
  H        25.5950210947        4.8807096190       13.3106748173
  H        23.1783637834        7.7689006870       11.2336149263
  H        22.0499719797        5.9170145757        9.9908618006
  H        23.8023450811        5.7905823798       14.7885625897
  H        44.9526794649       34.3893374997        9.6949787657
  H        44.8995083969       34.2063303969        6.4886390367
  H        40.6671326128       33.2076053443       10.8520064930
  H        23.1508858297        1.9567789094        8.0040418037
  H        25.8311633809       19.6280934411        3.8775173491
  H        23.6502706936       19.6897899542        2.6691193287
  H        22.3477869935       16.2239515587        4.8571965349
  H        24.5314321403       16.1813526463        6.0691888779
  H        23.7214338576       17.6557809790        1.2466466352
  H        35.1664579528       15.4218498558        4.0152000527
  H        37.2858442801       15.3793218638        2.6953119930
  H        38.6970376604       18.8072049332        4.8770255744
  H        36.5724526851       18.8320654476        6.1970857718
  H        37.2251247182       17.3585371303        1.2502129042
  H        20.3558943005       17.9809303669        4.6675018836
  H        35.1348865192       15.4633103564       12.1171864436
  H        37.2722703150       15.3843497239       13.4010699326
  H        38.7407450101       18.7431872142       11.1494245351
  H        36.6012933264       18.7984067341        9.8561772050
  H        37.2316027846       17.3477283989       14.8002442738
  H        35.1237270431       26.6844934218       11.3782600835
  H        28.5084225136       21.0781567096        7.8799068316
  H        25.7768245725       19.6085924678       12.1870138753
  H        23.5896196184       19.6699070067       13.3965893023
  H        22.2932742167       16.1987446877       11.2131032959
  H        24.4776504278       16.1641407916        9.9941751408
  H        23.7017431635       17.6416678106       14.7970627590
  H        28.9868274447       21.7309734190        9.6789847492
  H        29.1728075893       21.7321587822        6.5367788066
  H        32.0740224564       18.6297135404       10.9084427102
  H        27.3971126549       19.0671117427        8.0204038966
  H        14.8524271306       19.6558104709       12.1318942098
  H        17.0159917877       19.7063430019       13.3729351743
  H        18.3045419513       16.1913078830       11.2555884833
  H        16.1370594611       16.1571592120       10.0137300975
  H        16.9225717096       17.7142940297       14.8432746978
  H        46.0846947481       15.4260728039       12.0506422162
  H        43.9573465440       15.3556562169       13.3522546602
  H        42.5421887763       18.8029774016       11.2032491128
  H        44.6702424623       18.8480913005        9.8911089017
  H        44.0164865090       17.3039254463       14.8164845336
  H        20.2954554212       17.9308202997       11.4190623132
  H        46.0460884178       15.3845951236        4.0355211154
  H        43.9175123688       15.3195282093        2.7354478472
  H        42.5277001705       18.7963532918        4.8524107017
  H        44.6625516507       18.8468162470        6.1539382555
  H        44.0095655801       17.2941850636        1.2664478683
  H        46.1250901945       26.6382078946        4.6503076614
  H        52.7365925575       21.0652386362        8.1943852738
  H        14.8783508766       19.6794331883        3.9018755185
  H        17.0783829224       19.7569779187        2.7208105085
  H        18.3352934524       16.2326308539        4.8411217431
  H        16.1375192869       16.1798790053        6.0325085647
  H        16.9415902481       17.7291901329        1.2906840159
  H        52.3312836896       21.6762384399        6.2801567778
  H        52.0132589036       21.7003957413        9.4999077200
  H        49.0732268612       18.6058721056        5.2016479146
  H        13.2465226239       19.0170847420        7.9773121021
  H        29.9476005182       12.4975101257       12.2546262261
  H        28.8958993005       10.5507742803       13.4126126514
  H        25.2660639829       11.1958600819       11.1982526379
  H        26.3383366279       13.1277680821       10.0281846155
  H        27.1757842386       11.6743251601       14.7923731088
  H        30.9867776658       22.7666335452       11.9836798579
  H        31.9914202953       24.6384423432       13.2976686167
  H        35.6828087764       24.1506389029       11.1447179467
  H        34.6596878383       22.2837220261        9.8299269756
  H        33.6746617759       23.5761501849       14.7426181172
  H        25.7372619026        8.5976255661       11.3927230198
  H        30.9463744739       22.7103250912        3.9221538886
  H        31.9684328373       24.5814226332        2.6245577412
  H        35.6186488245       24.1162866928        4.8515699111
  H        34.5773308314       22.2522971023        6.1529439005
  H        33.6630319294       23.5586522846        1.1952840618
  H        40.6070623676       17.0815670838        4.6529574120
  H        32.5158561628       14.1494643041        8.2492943895
  H        29.8895050960       12.4822229188        3.9309131077
  H        28.8462123910       10.5884448295        2.6823673440
  H        25.1716013004       11.2083606050        4.8287119058
  H        26.2331831442       13.0940510461        6.0823389556
  H        27.1521942399       11.6869697945        1.2418279906
  H        33.2952043304       14.1821068663        6.4380211725
  H        33.4041119898       14.3881011020        9.6129338863
  H        32.1503941650       18.5264824096        5.1243764824
  H        30.2273493812       14.1906568831        8.0812576220
  H        16.1194913320        2.9632052083       12.1307065749
  H        14.9542525361        4.8203414288       13.3235101687
  H        17.3649269723        7.6859650329       11.2087473103
  H        18.5136531755        5.8182439728       10.0089058278
  H        16.7544232648        5.7400369355       14.7714064756
  H        44.7520593250       32.1406457498       12.0461025691
  H        45.8448536151       30.3393932836       13.3780128935
  H        43.7860227175       27.3756559451       11.0265639833
  H        42.7025632196       29.1941261121        9.7017630196
  H        44.2113702132       29.4004361410       14.7661236711
  H        14.8505889413        8.5458646176       11.3632633730
  H        44.8170375860       32.2325687820        3.8506782541
  H        45.9192081974       30.4079324210        2.5671704759
  H        43.8894204773       27.4869934975        4.9968159741
  H        42.7722483808       29.3267139339        6.2562416215
  H        44.2471624261       29.4322361524        1.2244979525
  H        35.0886260417       26.6186301116        4.6175440500
  H        36.6055008793       35.1339650305        8.1804414377
  H        16.1446163026        3.0130235161        3.9031502845
  H        14.9752121178        4.8565467273        2.6872777388
  H        17.3954003776        7.7473426558        4.7562456272
  H        18.5421898909        5.8931449830        5.9840101122
  H        16.7656669556        5.7560576450        1.2191855072
  H        36.2790999864       34.4819084980        6.2733627490
  H        36.3818884218       34.2087806287        9.4993183420
  H        40.5837037924       33.2004118813        5.1546941476
  H        17.4710162658        1.9471877122        7.9741290066
  H        29.1153732151       19.5150719522       12.3685769355
  H        29.2482405406       19.4198400589        3.4820216776
  H        30.5599040176       15.5808403065        3.8692521875
  H        30.9450616229       15.5486379492       12.3979859443
  H        27.7200762869       17.9289627410       14.4169632467
  H        29.1236326846       15.6913998596       14.7855160254
  H        30.9231979763       19.9420456659        1.1772678375
  H        32.3054582052       16.0969809558        1.9384499709
  H        33.1239893081       17.6456005972       14.3405721812
  H        18.8537578143        0.8693706129       12.3342057238
  H        40.5285633704       35.2290603533        3.9524981268
  H        42.3213785556       34.4153139449        3.5939452716
  H        22.0867812710        0.6933257282       12.3510073374
  H        11.5986265302       18.7098710025       12.3795583890
  H        52.2658202882       18.4244435173        3.6757918457
  H        49.2542539787       16.4778119632        3.5854189123
  H        10.1514734855       15.7987727365       12.2916137330
  H        50.8497703967       17.6899234174        3.9518968937
  H        10.0465151919       17.3954746985       12.0510210695
  H        20.2148679845        0.0018827236       12.0418015225
  H        39.1840349313       36.1249253365        3.6873096495
 Ni        30.8210898659       17.7917038099        2.7481652618
 Ni        31.1569426459       16.6210613198       -0.2509504707
 Ni        29.7630397390       18.6004258235       -0.4963480000
 Ni        29.8903105309       17.4951824469       13.1564995784
  O        10.6501527602       14.3648536318        5.4858350629
  O        12.6133532424       14.6575113269        6.5840556042
  O        49.1478235922       16.8458961053        7.9901336657
  O        50.3227895353       20.8745986431        5.5751095889
  O        48.3493756607       20.5918375963        6.6676782480
  O        11.0526635329       17.0516349679        6.5000263848
  O        50.3275296459       20.8795120463       10.4047653553
  O        48.3489027888       20.5862669953        9.3265472429
  O        49.5438445061       18.2487081872       10.0674177068
  O        12.3584822922       18.6245269449        7.9993923247
  O        48.6930035396       14.1484091606        6.7515164310
  O         8.2098070663       14.2103810397        9.3225188474
  O        10.7354271975       14.5066699263       10.6643891795
  O        12.5719117626       14.5828555871        9.3285496796
  O        22.8444061488        2.0429059159        5.4869307747
  O        21.6049121228        3.5919456889        6.5899802211
  O        42.0582681766       34.1373695105        7.9791296877
  O        37.9814010864       33.1365866269        5.5719572509
  O        39.2175106814       31.5754020828        6.6660908941
  O        20.3084289686        1.0392881489        6.5019395340
  O        38.0245574781       33.1859219838       10.4149742665
  O        39.2189894157       31.5836266442        9.3262027184
  O        40.6521699303       33.7692118284       10.0601005780
  O        18.2556235954        1.3759477457        7.9967678476
  O        44.6224806535       35.1005704670        6.7584049375
  O        24.2056084399        0.0000230661        9.3209725106
  O        22.7532394915        2.0579453313       10.5839393150
  O        21.6247272568        3.5963502652        9.3428529486
  O        27.5369456784       18.6850271210        5.4152469346
  O        26.7653728176       16.9313237501        6.6457276026
  O        30.6673274451       19.4049499949        7.9928762788
  O        33.5873748637       16.2763092795        5.6629198767
  O        34.2777315437       18.1671826037        6.7293313611
  O        29.5848770031       17.0567570254        6.5744661537
  O        33.5546109375       16.3429667406       10.4167173281
  O        34.3020798850       18.2411510731        9.4050329818
  O        31.6532919310       18.3207949824       10.0899015408
  O        30.3243394959       15.1572154799        8.0788411803
  O        28.5573830166       21.0287499476        6.8116270410
  O        28.5108993795       20.9592560785        9.3277826166
  O        27.4617432240       18.6818371179       10.6516820001
  O        26.6964319252       16.9301608287        9.4090240599
  O        13.1489775478       18.6932456246       10.5874785547
  O        13.9199100437       16.9164058892        9.4054246552
  O        50.5958430698       19.3512496021        8.0146672119
  O        47.6824269968       16.3270270756       10.4173997030
  O        46.9500352443       18.1755597871        9.3255257713
  O        11.0693543623       17.0157596870        9.4894517529
  O        47.6760273321       16.3353986934        5.6531274258
  O        46.9258335022       18.2355846194        6.6639152536
  O        49.5673194284       18.3118903822        5.9827013744
  O        10.3186185736       15.1000901400        7.9971998623
  O        52.6710588610       21.0281097651        9.2409529859
  O        12.1409152075       20.8914116779        6.6699479436
  O        13.1079719699       18.6135247186        5.3252090562
  O        13.9577216418       16.9872173949        6.6650953330
  O        29.9674410127       14.5092103944       10.7416048933
  O        28.0831379258       14.6572499184        9.4850448033
  O        32.1356786460       16.8588809687        8.0641919993
  O        30.9585666939       20.9631025729       10.3278785065
  O        32.9589055155       20.5930256099        9.3259437170
  O        29.5633162272       17.0813802034        9.5681957976
  O        30.9061856308       20.8814998004        5.5787573620
  O        32.8798452188       20.5871801027        6.6607845695
  O        31.6846637132       18.2450910880        5.9281440540
  O        28.2851812505       18.6743638751        8.0092857443
  O        32.4887553366       14.2138550778        9.3279240507
  O        32.4041723839       14.2120693083        6.8241254465
  O        29.9032475562       14.4400516302        5.4232680177
  O        28.0491936883       14.5830512407        6.7421149437
  O        17.8892124918        1.9666252317       10.6628381007
  O        18.9562786133        3.5271560983        9.4079563334
  O        39.1688218993       34.1385427751        7.9970900888
  O        43.2796209515       33.0612400199       10.3317229308
  O        42.0339368356       31.5075864541        9.2403490407
  O        20.3178573995        1.0366284489        9.4804845651
  O        43.2754363629       33.1855904305        5.5752228698
  O        42.0049153274       31.5850904666        6.5842725732
  O        40.5787196107       33.7748197222        5.9355118334
  O        22.3672042084        1.3843739595        7.9979440006
  O        36.6727302979       35.0997905728        9.2332161682
  O        16.4455906727        0.0641386537        6.6682106929
  O        17.9363938127        2.0433560502        5.3263673329
  O        18.9190142517        3.5931109239        6.6659724316
  O        29.8285615021       18.8333585217        3.9987632881
  O        29.8532416729       19.0529797913       11.9246700954
  O        31.2212077921       16.2654031633        4.0866489114
  O        31.2984439036       16.4063034623       12.0801923769
  O        31.8937049433       16.8556218402        1.4857676060
  O        29.9943574321       15.8948725506       14.4053494780
  O        32.6942506186       16.7744049454       14.3236626513
  O        30.4099678293       19.1178663170        1.1649489036
  O        28.4917819678       18.4637635453       14.1628770344
  O        39.4568644812       35.2439108371        4.0019841301
  O        19.1412932519        0.0043670484       11.9905399752
  O        41.9693301207       35.1727755742        4.0868309129
  O        21.6912517994       -0.0691440218       11.8963901723
  O        51.3663956349       18.6112080287        4.0029727357
  O        10.7516011188       18.7466600581       11.9043928282
  O        50.0794072911       16.4121044654        4.0913075988
  O         9.5248099246       16.4832987244       11.9910905749
 Zr         9.2961054917       16.0524772867        6.1829615961
 Zr        49.8361823401       16.0077779351        9.7462048300
 Zr        22.0742964849        0.0275947334        6.1889579962
 Zr        42.4615770759       35.1519826200        9.8010271572
 Zr        29.6142028309       19.0683468249        6.2222528711
 Zr        29.5777024005       19.1900861279        9.8025254738
 Zr        11.0367440671       19.0535271291        9.8255077743
 Zr        11.0410915132       19.1508909897        6.2444956720
 Zr        31.3535555077       16.1188705960        9.8524337600
 Zr        31.4006164784       16.0075103830        6.2522733881
 Zr        18.6019803663       -0.0019140631        9.7627732662
 Zr        18.5072579959       -0.0084148561        6.2139523936
 Zr        12.3016112119       16.3243226920        7.9907217671
 Zr        48.6161324679       18.8351583358        8.0091496711
 Zr        20.3151254670        2.4718980410        7.9906142624
 Zr        40.6457909254       32.6855202407        7.9771600594
 Zr        28.3449381842       16.3452982153        8.0712602645
 Zr        32.6309181493       18.8407611293        8.0260457861
  H        32.2924828269       16.6697656879       13.3889548408
