     562
 i =      153, E =     -4525.7835155675
  C        11.8585713637       14.0533720154        5.7415084356
  C        12.4559474471       12.8903779001        5.0232620763
  C        11.7043306666       12.1717244668        4.0813281002
  C        12.2806337127       11.1094732850        3.3890002924
  C        13.6210919943       10.7393423236        3.6169355677
  C        14.3541536782       11.4426156142        4.5907158883
  C        13.7813298479       12.5076062542        5.2822472430
  C        14.2605340443        9.6486568472        2.8435109397
  C        14.2555874230        9.6564692719        1.4218057144
  C        13.7423779885       10.7585531670        0.6678720497
  C        49.1265346327       21.2333951091        5.8797465720
  C        48.5496631231       22.4012210580        5.1527080741
  C        49.2996478339       23.0684545459        4.1716033894
  C        48.7326871819       24.1075207833        3.4383536915
  C        47.4021727502       24.5092228281        3.6670463387
  C        46.6712832814       23.8604651148        4.6806888600
  C        47.2337519106       22.8156051915        5.4100865143
  C        46.7719536528       25.5868767353        2.8697307181
  C        46.7609787472       25.5572276282        1.4479740525
  C        47.2608968419       24.4421259851        0.7044837056
  C        14.8594011941        8.5700713730        0.7085220400
  C        14.8914514253        8.5967586782        3.5201285198
  C        49.1128384419       21.2034813087       10.1452950607
  C        48.5274674978       22.3648367690       10.8723327169
  C        49.2665944283       23.0252974473       11.8655053595
  C        48.6902716778       24.0598271110       12.5969804415
  C        47.3599505658       24.4568189815       12.3585562699
  C        46.6396885794       23.8122067855       11.3347270205
  C        47.2132250698       22.7763237152       10.6029051104
  C        46.7215024922       25.5317322216       13.1496223703
  C        46.7332336840       25.5280438245       14.5713257810
  C        47.2486330598       24.4288214288       15.3277216073
  C        40.6174051344       17.0659817876       15.3187293386
  C        40.6345776714       17.1147358142       12.5084357877
  C        11.8826818482       14.0862425773       10.2854515745
  C        12.4716149962       12.9102025269       10.9894880441
  C        11.7140676561       12.1775348046       11.9160081779
  C        12.2803683491       11.0949457753       12.5844249639
  C        13.6189335634       10.7205181245       12.3522055069
  C        14.3568409188       11.4354279263       11.3908458463
  C        13.7917038037       12.5167265540       10.7181411811
  C        14.2523997140        9.6237765993       13.1226953805
  C        14.2512660493        9.6438650365       14.5445369860
  C        13.7416010519       10.7529050320       15.2916163419
  C        22.5032542576        3.2420444066        5.7470363895
  C        23.2005290110        4.3446331638        5.0301607137
  C        24.1982988731        4.0617533708        4.0860852929
  C        24.8155697225        5.0990415393        3.3930062773
  C        24.4485591871        6.4391840023        3.6245780164
  C        23.4742001058        6.7137735812        4.6010896901
  C        22.8533203301        5.6784883711        5.2934896822
  C        25.0568711621        7.5442720730        2.8525450948
  C        25.0561241979        7.5334155606        1.4318496215
  C        24.3690927068        6.5308529058        0.6769280317
  C        38.3003216804       31.9274320108        5.8485879748
  C        37.5641671215       30.8395492514        5.1397062007
  C        36.6010286144       31.1485807072        4.1665225289
  C        35.9733399670       30.1328479238        3.4501825048
  C        36.2925861893       28.7806492401        3.6836691461
  C        37.2269456643       28.4790024181        4.6928230429
  C        37.8586939071       29.4937732039        5.4085010935
  C        35.6785167461       27.6933819137        2.8858711220
  C        35.7085204255       27.7085711576        1.4637158953
  C        36.4184162334       28.7079006114        0.7262102349
  C        25.6902681431        8.6031252573        0.7219897824
  C        25.6362167154        8.6221673599        3.5324376087
  C        38.3268479359       31.9606542395       10.1568469636
  C        37.6009425899       30.8880937060       10.8982510953
  C        36.6683169444       31.1990923731       11.8999963880
  C        36.0510841727       30.1829259166       12.6274284689
  C        36.3511285129       28.8284112484       12.3782407124
  C        37.2623045274       28.5274362666       11.3469595808
  C        37.8815191546       29.5402733968       10.6204228938
  C        35.7348654334       27.7317199378       13.1619619542
  C        35.7373233350       27.7280335586       14.5847164101
  C        36.4312699340       28.7178302944       15.3493490156
  C        46.1352250785       26.6206799303       15.2814612971
  C        46.0875568587       26.5800976173       12.4735737113
  C        22.4672627468        3.2539584979       10.2505086755
  C        23.1781164229        4.3599391705       10.9586710861
  C        24.1902470006        4.0688267775       11.8870362736
  C        24.8312303157        5.0964109244       12.5740925829
  C        24.4789508572        6.4429719814       12.3552843910
  C        23.4926123968        6.7275077666       11.3925354707
  C        22.8476211041        5.7002458014       10.7049258948
  C        25.1098619611        7.5367630512       13.1341378971
  C        25.0837422128        7.5288797714       14.5560201039
  C        24.3794921799        6.5305876585       15.3006153284
  C        26.5656361507       17.8188311555        5.7532921098
  C        25.2599534513       17.8738647892        5.0349025443
  C        24.9974470374       18.8900387121        4.1031376085
  C        23.7856154034       18.9179826678        3.4184291703
  C        22.8054506875       17.9315075709        3.6438479619
  C        23.0627158486       16.9380990856        4.6064712590
  C        24.2754453976       16.9066549552        5.2915174925
  C        21.5390407653       17.9244072945        2.8744556096
  C        21.5491558791       17.9231449136        1.4529430111
  C        22.7605694860       17.8149853933        0.6993459139
  C        34.4170394065       17.2108010660        5.9140540919
  C        35.7129767603       17.1388328708        5.1766783995
  C        35.9085679427       16.1631844144        4.1866262296
  C        37.0914707491       16.1323270288        3.4525900968
  C        38.1102337271       17.0770842265        3.6853881992
  C        37.9168850361       18.0323057348        4.7020278904
  C        36.7328174539       18.0672301412        5.4354005862
  C        39.3644119903       17.0758192392        2.8963611748
  C        39.3597825994       17.0798035589        1.4737017517
  C        38.1519675881       17.1891534315        0.7148993514
  C        20.3063977755       17.9466891278        0.7400149713
  C        20.3134067048       17.9158233922        3.5521213737
  C        34.4455338156       17.2427274023       10.1812109157
  C        35.7465060784       17.1421261046       10.9060782791
  C        35.9731838873       16.1315020583       11.8529940544
  C        37.1605087214       16.1020666191       12.5809065905
  C        38.1545583053       17.0791367717       12.3781121841
  C        37.9370549236       18.0625255063       11.3948542084
  C        36.7473594128       18.0987195082       10.6728309267
  C        39.4035480245       17.0886073391       13.1737535410
  C        39.3798861593       17.0849138132       14.5951971867
  C        38.1615039423       17.1881669356       15.3378703438
  C        35.0998117372       26.6523980113       15.2886178676
  C        35.1452321347       26.6600895567       12.4789000404
  C        26.5634671709       17.8250206684       10.3222841786
  C        25.2504588207       17.8770199759       11.0248853466
  C        24.9691679531       18.9132935524       11.9277986517
  C        23.7514437811       18.9429732167       12.6007953552
  C        22.7864644656       17.9392717486       12.3886066246
  C        23.0601565958       16.9278432724       11.4507089110
  C        24.2797140619       16.8941555395       10.7784328026
  C        21.5210095664       17.9294971207       13.1571865298
  C        21.5394742387       17.9264493276       14.5777326012
  C        22.7560312521       17.8174869808       15.3230925056
  C        14.0444860533       17.8327154470       10.2823534061
  C        15.3513236237       17.8990066206       10.9969014123
  C        15.6116804007       18.9162766219       11.9276114742
  C        16.8229468451       18.9441057414       12.6144133965
  C        17.8033643023       17.9571714613       12.3907940196
  C        17.5492257471       16.9656304340       11.4253379221
  C        16.3376627116       16.9336641063       10.7395907020
  C        19.0683677045       17.9418220108       13.1615773673
  C        19.0585842612       17.9390781435       14.5827516649
  C        17.8463602424       17.8403623843       15.3358070625
  C        46.8026988149       17.2177709583       10.1591406343
  C        45.5111550342       17.1509831858       10.9044077180
  C        45.3064298284       16.1677568666       11.8851212548
  C        44.1238453099       16.1413547231       12.6200721411
  C        43.1140713341       17.0983297620       12.3979747601
  C        43.3163915713       18.0618503459       11.3909869414
  C        44.4997556521       18.0918401727       10.6564593332
  C        41.8595315655       17.0990141254       13.1867630888
  C        41.8642654968       17.0889684402       14.6093585308
  C        43.0725077684       17.1857738949       15.3690884162
  C        20.3012457833       17.9476950735       15.2963141121
  C        20.2939148213       17.9167650189       12.4840243386
  C        46.7826163581       17.2302909863        5.8884921099
  C        45.4781066779       17.1188189708        5.1735281404
  C        45.2611198203       16.1145197634        4.2175725659
  C        44.0720506429       16.0787115177        3.4928443360
  C        43.0684664439       17.0438893881        3.7061447549
  C        43.2761214372       18.0184904598        4.7003717321
  C        44.4665280760       18.0606423513        5.4203080097
  C        41.8205171828       17.0561015459        2.9093102502
  C        41.8443566447       17.0657056864        1.4878258976
  C        43.0629337692       17.1720590638        0.7459354792
  C        46.1529847038       26.6371084435        0.7262163810
  C        46.1620181829       26.6560049937        3.5358537019
  C        14.0388866394       17.8269089433        5.7052604355
  C        15.3509784051       17.8929338209        5.0018864312
  C        15.6213842186       18.9160605434        4.0813670191
  C        16.8439720785       18.9511816723        3.4160844467
  C        17.8201207390       17.9619495946        3.6471667408
  C        17.5551426227       16.9641123255        4.6021167235
  C        16.3348577168       16.9288507247        5.2714833670
  C        19.0856594865       17.9436146727        2.8792444599
  C        19.0677670851       17.9386684540        1.4583878774
  C        17.8509254071       17.8398626739        0.7119147388
  C        28.7967174780       14.1174477722       10.3972806559
  C        28.2061801521       12.9313269534       11.0783139691
  C        28.9358226082       12.2061055764       12.0314110327
  C        28.3518747753       11.1183898111       12.6760842421
  C        27.0249117779       10.7358567341       12.3935526439
  C        26.3192260429       11.4415170433       11.4025081761
  C        26.9011175113       12.5268480910       10.7542453869
  C        26.3611131287        9.6493329315       13.1486747626
  C        26.3306004497        9.6750682164       14.5692908319
  C        26.8231472237       10.7882068340       15.3219504464
  C        32.1783016567       21.2391375755       10.1080449359
  C        32.7616958055       22.4045528517       10.8381082342
  C        32.0057536551       23.0758986031       11.8119656154
  C        32.5683809793       24.1148383677       12.5486537716
  C        33.9023009244       24.5132950908       12.3329464310
  C        34.6405437084       23.8591661913       11.3278733808
  C        34.0814026944       22.8143467023       10.5940079821
  C        34.5241337496       25.5921638196       13.1372133214
  C        34.5080356121       25.5683908539       14.5596717489
  C        33.9943258435       24.4564867493       15.2990301484
  C        25.7101511335        8.5967943025       15.2782793362
  C        25.7336724999        8.5985334657       12.4666318800
  C        32.0719555923       21.1938452180        5.8429839991
  C        32.6480646718       22.3643534188        5.1144940203
  C        31.9156082054       23.0184599527        4.1115782179
  C        32.4883335925       24.0627557799        3.3883684593
  C        33.8093760269       24.4812781914        3.6444296276
  C        34.5222247868       23.8424446282        4.6776137852
  C        33.9533063673       22.7961997958        5.3993429254
  C        34.4504876609       25.5645896669        2.8617374972
  C        34.4703539335       25.5545697708        1.4389145937
  C        33.9755639266       24.4502006798        0.6759330088
  C        40.6066713477       17.0585417243        0.7642047833
  C        40.5893164566       17.0793542170        3.5744473571
  C        28.6801359123       14.0337537080        5.8235961684
  C        28.0646194184       12.8919409199        5.0869919013
  C        28.8157719568       12.1740613894        4.1436219275
  C        28.2358407414       11.1269042878        3.4341375194
  C        26.8901951726       10.7693431980        3.6472658414
  C        26.1547658281       11.4715000769        4.6199345081
  C        26.7328514536       12.5224166997        5.3294479212
  C        26.2588003055        9.6824484967        2.8640622602
  C        26.2795718199        9.6922942174        1.4431665779
  C        26.7975394190       10.7972684915        0.6975983499
  C        18.1352734283        3.1808903343       10.3171981370
  C        17.4056300854        4.2779911463       11.0157383428
  C        16.3896863740        3.9993650075       11.9429206307
  C        15.7416655511        5.0391792765       12.6063953881
  C        16.0934976557        6.3829506223       12.3669540475
  C        17.0830950130        6.6527436153       11.4035010833
  C        17.7324937020        5.6155653743       10.7384773358
  C        15.4689356556        7.4905083629       13.1300180924
  C        15.4843388110        7.4899150901       14.5517290913
  C        16.1860681757        6.4963933911       15.3048512691
  C        42.9457181171       31.8594991190       10.0728258490
  C        43.6460339627       30.7717645562       10.8168082755
  C        44.5916019915       31.0930920247       11.8028257604
  C        45.1972815446       30.0875448427       12.5505080170
  C        44.8707894776       28.7345054526       12.3356604346
  C        43.9449309346       28.4201586974       11.3224893682
  C        43.3361364361       29.4253057270       10.5744348998
  C        45.4883474569       27.6552036580       13.1388536144
  C        45.4925184585       27.6808126728       14.5605468311
  C        44.8054600519       28.6888877108       15.3071607772
  C        14.8553764840        8.5624121037       15.2640886351
  C        14.8735589243        8.5621957107       12.4514209478
  C        42.9463658263       31.9615982502        5.8090070277
  C        43.6915100344       30.8853974764        5.0954589612
  C        44.6562625499       31.1912828522        4.1233243980
  C        45.2777379658       30.1716853792        3.4055657070
  C        44.9537250485       28.8214075585        3.6430336741
  C        44.0200509615       28.5237452138        4.6536236302
  C        43.3918445995       29.5405302036        5.3658276516
  C        45.5627398758       27.7239908723        2.8577907777
  C        45.5330382903       27.7172831003        1.4364975585
  C        44.8267374045       28.7075327969        0.6835536282
  C        35.0829469011       26.6440174607        0.7345973679
  C        35.0662764618       26.6210600924        3.5452677675
  C        18.1484325937        3.2468136227        5.7066008970
  C        17.4298363548        4.3436141124        4.9971407315
  C        16.4145097540        4.0523111547        4.0737335870
  C        15.7661293994        5.0829206760        3.3983600845
  C        16.1208841789        6.4281529730        3.6209146899
  C        17.1124813681        6.7115795481        4.5779260196
  C        17.7601793476        5.6826832624        5.2576982244
  C        15.4902194365        7.5238058937        2.8485236596
  C        15.4958371462        7.5070778348        1.4273850202
  C        16.1925312898        6.5053478945        0.6806630913
  H        10.6722978012       12.4660746738        3.9041230605
  H        11.6943708146       10.5511664960        2.6623088624
  H        15.3910669205       11.1677298900        4.7726884666
  H        14.3507115531       13.0704795417        6.0180188821
  H        13.3755745429       11.6307922463        1.2011331928
  H        50.3223341690       22.7483785903        3.9868241776
  H        49.3191204478       24.6227347099        2.6807017967
  H        45.6418329679       24.1613330998        4.8639409369
  H        46.6627712510       22.2904562385        6.1722694708
  H        47.6293965774       23.5757271636        1.2461584925
  H        14.8719996456        8.5880517203        4.6084402251
  H        50.2865532082       22.7022733667       12.0605709956
  H        49.2685819215       24.5751156504       13.3606570523
  H        45.6103994815       24.1097036827       11.1454387326
  H        46.6525000203       22.2544210552        9.8310929968
  H        47.6073866164       23.5516786190       14.7968501599
  H        40.6403440367       17.0941262636       11.4202627344
  H        48.6870930356       14.0950445023        7.8000290536
  H        10.6808031696       12.4671375198       12.0937291845
  H        11.6885582567       10.5249446592       13.2974177819
  H        15.3920524260       11.1569650363       11.2045423224
  H        14.3640536952       13.0855939092        9.9892291183
  H        13.3748117996       11.6215420809       14.7529965638
  H        47.9300900346       14.2182299005        9.7107892766
  H        47.7799366782       14.3737951517        6.4953739993
  H        49.0825124515       18.5522642320       10.8671204306
  H        10.4158688600       14.1343204097        7.9987520822
  H        24.4689821601        3.0233660314        3.9085789876
  H        25.5928448628        4.8822528705        2.6634952137
  H        23.1839603900        7.7464568967        4.7828656861
  H        22.0808650677        5.8783322633        6.0319827567
  H        23.8013116121        5.7735164398        1.2096194367
  H        36.3684113907       32.1931693671        3.9734713198
  H        35.2265392225       30.3785779489        2.6983433728
  H        37.4826532982       27.4383725887        4.8816015115
  H        38.6045621195       29.2661761332        6.1665124266
  H        36.9850099983       29.4565568356        1.2722617372
  H        25.6505979655        8.6077921320        4.6206871147
  H        36.4471087644       32.2439250095       12.1060360036
  H        35.3225089234       30.4318364015       13.3958630927
  H        37.5075726678       27.4865325525       11.1465200751
  H        38.6064651033       29.3106757408        9.8432157334
  H        37.0087731494       29.4737053996       14.8249736714
  H        46.1089701594       26.5875465824       11.3855388724
  H        44.6682403250       35.1162064927        7.8142154373
  H        24.4630840535        3.0290851902       12.0525970264
  H        25.6175976188        4.8654241286       13.2895309697
  H        23.2109286880        7.7634645730       11.2153193312
  H        22.0690075771        5.9155707474        9.9768154009
  H        23.8191332856        5.7734819097       14.7599721526
  H        44.9536320461       34.3898131147        9.6946610563
  H        44.9020241212       34.2068785515        6.4907877164
  H        40.6652045304       33.2083716983       10.8528046793
  H        23.1500167902        1.9577910751        8.0022712799
  H        25.7524138936       19.6540297650        3.9332863611
  H        23.5822527903       19.7106807664        2.7017058123
  H        22.3141173784       16.1690692410        4.7856009837
  H        24.4896771809       16.1281805844        6.0200061981
  H        23.6992474112       17.6967353657        1.2328814010
  H        35.1147469315       15.4438534712        3.9987861842
  H        37.2406404427       15.3673895326        2.6936733566
  H        38.6941180527       18.7709226948        4.8870443209
  H        36.5688090993       18.8204526298        6.2026172654
  H        37.2109673149       17.3065320610        1.2448478899
  H        20.3155401393       17.9403829756        4.6403703620
  H        35.2063438065       15.3772563398       12.0144026167
  H        37.3317843427       15.3161847846       13.3133933745
  H        38.6978867220       18.8230338398       11.2315700967
  H        36.5594758629       18.8759737670        9.9359439160
  H        37.2276330466       17.3030919405       14.7951205952
  H        35.1242800400       26.6833203984       11.3909474714
  H        28.5043956046       21.0756496388        7.8755777541
  H        25.7148273730       19.6898900262       12.0815997361
  H        23.5314635652       19.7475641053       13.2991787219
  H        22.3207722424       16.1473667485       11.2833778620
  H        24.5096342772       16.1023976538       10.0694443881
  H        23.6910637717       17.7021264185       14.7827200726
  H        29.0017535651       21.7139333725        9.7385068508
  H        29.1973024996       21.7004653360        6.5466192023
  H        32.1151802405       18.6039135189       10.8880398537
  H        27.3658654893       19.0256348826        8.0267316881
  H        14.8539875662       19.6778375556       12.0975998701
  H        17.0244991454       19.7361772914       13.3323876124
  H        18.2989556097       16.1977210178       11.2462381845
  H        16.1253053467       16.1558800599       10.0100340970
  H        16.9067488283       17.7312010713       14.8022372848
  H        46.0912981934       15.4367806390       12.0647504962
  H        43.9676266029       15.3701572308       13.3711998982
  H        42.5464010814       18.8099507192       11.2139121934
  H        44.6700149688       18.8503608345        9.8958973957
  H        44.0140075629       17.3044196990       14.8404581621
  H        20.2927266644       17.9400502308       11.3957608226
  H        46.0402806886       15.3758970839        4.0435465671
  H        43.9083145132       15.2987224901        2.7524011988
  H        42.5073830515       18.7689751856        4.8725463001
  H        44.6462052526       18.8323804104        6.1648612178
  H        43.9973519201       17.2789565988        1.2892917885
  H        46.1988402701       26.6825847241        4.6232978144
  H        52.7411982442       21.0626380605        8.1946012084
  H        14.8644177026       19.6773002617        3.9063826138
  H        17.0570002292       19.7479618402        2.7067163103
  H        18.3021447762       16.1942854871        4.7842374624
  H        16.1124977862       16.1484575953        5.9951529666
  H        16.9146934810       17.7304863070        1.2511048824
  H        52.3223221320       21.6736376713        6.2947299577
  H        52.0135487459       21.7026909568        9.4953959417
  H        49.0668668038       18.6076579016        5.2043259909
  H        13.2470604961       19.0163707610        7.9753136812
  H        29.9556297873       12.5125265253       12.2537364790
  H        28.9179987515       10.5538922246       13.4138102310
  H        25.2941358046       11.1548165972       11.1771804159
  H        26.3538615772       13.0927113055       10.0044752130
  H        27.1950760648       11.6572041792       14.7876095774
  H        30.9805046385       22.7579735939       11.9865703028
  H        31.9754765952       24.6334590913       13.2989165316
  H        35.6729999738       24.1555112687       11.1540611001
  H        34.6588671284       22.2863223640        9.8385672856
  H        33.6403809611       23.5861662483       14.7538440511
  H        25.7746296867        8.5814285970       11.3789427692
  H        30.9015446496       22.6852652155        3.9025580151
  H        31.9119459962       24.5695606263        2.6174720871
  H        35.5445407631       24.1527951313        4.8836055272
  H        34.5119541478       22.2820476480        6.1778599510
  H        33.6075149492       23.5745770868        1.2031182170
  H        40.5832238892       17.0487181175        4.6623657714
  H        32.5084227442       14.1511156777        8.2414309673
  H        29.8561645272       12.4481611746        3.9862372887
  H        28.8232670915       10.5668219882        2.7098479209
  H        25.1135580652       11.2048971743        4.7893733131
  H        26.1635504991       13.0830306563        6.0671385704
  H        27.1492869419       11.6726215575        1.2360527285
  H        33.2989825280       14.2264734670        6.4444957775
  H        33.4037967772       14.3967362178        9.6001264073
  H        32.0809959957       18.4865363529        5.1029283488
  H        30.1957818526       14.1395682319        8.0776301629
  H        16.1177648644        2.9627889665       12.1291276115
  H        14.9520868228        4.8196120279       13.3218578791
  H        17.3655467393        7.6856693001       11.2106853457
  H        18.5147783989        5.8183999419       10.0109430225
  H        16.7526181912        5.7390809977       14.7713030305
  H        44.8278836329       32.1401820520       11.9769675173
  H        45.9371795140       30.3412898422       13.3064226525
  H        43.6821990222       27.3780938663       11.1524106777
  H        42.5994781445       29.1900152797        9.8097935242
  H        44.2301506549       29.4366785339       14.7688385645
  H        14.8497946764        8.5453728642       11.3632017861
  H        44.8999615695       32.2339579282        3.9320357383
  H        46.0247722566       30.4128865203        2.6524469664
  H        43.7628907367       27.4840340594        4.8450206622
  H        42.6451918978       29.3177922868        6.1241413948
  H        44.2682831946       29.4704497835        1.2181544757
  H        35.0240823852       26.6335043191        4.6327919026
  H        36.6052765182       35.1339688774        8.1806032041
  H        16.1433856516        3.0127225183        3.9041433914
  H        14.9736852846        4.8560468619        2.6884173350
  H        17.3961413244        7.7470373769        4.7546240906
  H        18.5431331650        5.8931551569        5.9823735121
  H        16.7641516751        5.7552299414        1.2190742838
  H        36.2790450508       34.4818990171        6.2734187654
  H        36.3810590172       34.2090364193        9.4996400323
  H        40.5797038366       33.2023586949        5.1539632074
  H        17.4707949716        1.9473205778        7.9740287258
  H        28.7367336398       18.8763967121       12.1966399895
  H        28.7593371585       18.7723639440        3.7245962017
  H        30.8219015166       15.4240334594        3.7076099260
  H        32.4004322918       16.3575978250       12.3321750556
  H        29.1771492363       19.0337110270       14.7414327600
  H        18.8538096406        0.8690312748       12.3352168217
  H        40.5284895664       35.2287944426        3.9521154040
  H        42.3236217317       34.4185535385        3.5903007554
  H        22.0872831296        0.6921439296       12.3517343861
  H        11.5966514546       18.7128111409       12.3825505887
  H        52.2647642787       18.4312927775        3.6775687659
  H        49.2550808843       16.4765675363        3.5841091483
  H        10.1507309018       15.7982738711       12.2923911099
  H        50.8498791669       17.6926570481        3.9540163812
  H        10.0461779778       17.3947837484       12.0519210028
  H        20.2151120267        0.0020086903       12.0419203238
  H        39.1839362373       36.1244678735        3.6864587661
 Ni        30.5656461244       17.6471452820        2.5940578397
 Ni        30.3112765225       17.5462649873        0.4118996833
 Ni        30.4387468612       17.5207631731       13.2394872770
  O        10.6498266740       14.3652097877        5.4857793962
  O        12.6130642004       14.6573494028        6.5838267690
  O        49.1475676308       16.8459614353        7.9896915461
  O        50.3500623201       20.9363202421        5.6482623838
  O        48.3484486266       20.5932314017        6.6659789215
  O        11.0508153676       17.0541485093        6.5005599079
  O        50.3206256543       20.8817153258       10.4068770951
  O        48.3465792953       20.5866387973        9.3270174181
  O        49.5431860928       18.2484339266       10.0683327917
  O        12.3586437554       18.6246828516        7.9996416118
  O        48.6931720155       14.1486372000        6.7512905999
  O         8.2098319868       14.2104497225        9.3225449038
  O        10.7351767719       14.5067733234       10.6643349345
  O        12.5716451966       14.5826759255        9.3285830771
  O        22.8440347873        2.0418199675        5.4877810627
  O        21.6037801509        3.5913107544        6.5903663976
  O        42.0579337759       34.1370750986        7.9791277113
  O        37.9813277667       33.1362530650        5.5722070714
  O        39.2171552797       31.5749079642        6.6653706493
  O        20.3083355225        1.0396414628        6.5019107838
  O        38.0242159769       33.1849527576       10.4155181747
  O        39.2180954755       31.5827793174        9.3274843665
  O        40.6521210485       33.7690524798       10.0601707031
  O        18.2556681117        1.3764195248        7.9967823798
  O        44.6222180837       35.1005338639        6.7588837539
  O        24.2055021514       -0.0001695217        9.3207418713
  O        22.7529097234        2.0559950678       10.5827144206
  O        21.6244304511        3.5954067507        9.3419709709
  O        27.4614504099       18.6814935764        5.4177302243
  O        26.6918314839       16.9279899593        6.6573575179
  O        30.6281631800       19.3480584674        7.9918783354
  O        33.5389969245       16.3255383508        5.6564106883
  O        34.2679417230       18.1781615652        6.7412119672
  O        29.5353503206       17.0067155060        6.5721615583
  O        33.5566286009       16.3414204631       10.4182951362
  O        34.2985379096       18.2382930175        9.4025262299
  O        31.6485807018       18.3229117310       10.0849088328
  O        30.2887592472       15.1059304740        8.0789883447
  O        28.5519664578       21.0248057311        6.8249760431
  O        28.5082104857       20.9514133055        9.3921415538
  O        27.4551176187       18.6786381635       10.6552071901
  O        26.6901017736       16.9297284823        9.4140901142
  O        13.1459068828       18.6939960534       10.5858464978
  O        13.9172050722       16.9157953845        9.4034901389
  O        50.5955837550       19.3502768348        8.0205195705
  O        47.6823634951       16.3273074809       10.4175510661
  O        46.9499594922       18.1756206730        9.3257591826
  O        11.0686775966       17.0160510033        9.4895341534
  O        47.6746880929       16.3358681546        5.6529423059
  O        46.9244806270       18.2358262026        6.6629948234
  O        49.5685449829       18.3177985091        5.9822778423
  O        10.3186401823       15.1001880488        7.9971358787
  O        52.6706958978       21.0280611855        9.2417990001
  O        12.1468179562       20.8914195794        6.6732974669
  O        13.1047739236       18.6142008820        5.3262630809
  O        13.9550179975       16.9862086001        6.6654882052
  O        29.9623910369       14.5105534466       10.7413779603
  O        28.0756442690       14.6563187970        9.4887724625
  O        32.0693213316       16.8522636320        8.0579121049
  O        30.9572198046       20.9508288297       10.3364740072
  O        32.9554351275       20.5912204930        9.3233857699
  O        29.5577094334       17.0701142354        9.5687486802
  O        30.8540254478       20.8747793913        5.5853350620
  O        32.8549260504       20.5852194189        6.6525030809
  O        31.6144239398       18.2378516716        5.9170988773
  O        28.2535941517       18.6320412608        8.0133995976
  O        32.4877965300       14.2137285468        9.3236648728
  O        32.4028443937       14.2155383260        6.8205095330
  O        29.8691885481       14.3699868487        5.4978430254
  O        27.9685223392       14.5813591241        6.7412286668
  O        17.8891715909        1.9665405704       10.6628479552
  O        18.9561137603        3.5271752927        9.4081094515
  O        39.1684900202       34.1386105150        7.9971996452
  O        43.2802132421       33.0588308161       10.3317124667
  O        42.0343203081       31.5064210890        9.2416137041
  O        20.3172944435        1.0361835864        9.4802706619
  O        43.2761250401       33.1824893026        5.5748869756
  O        42.0052090324       31.5840918664        6.5830182772
  O        40.5790173533       33.7750297262        5.9361003004
  O        22.3670873154        1.3842881867        7.9981306691
  O        36.6727626776       35.0997318427        9.2332781401
  O        16.4456345661        0.0641228471        6.6682455495
  O        17.9363432361        2.0431637472        5.3263988254
  O        18.9187567999        3.5931722015        6.6658760014
  O        29.6986084516       18.7575728741        3.9883253239
  O        29.6935131958       18.9038197707       11.9960257219
  O        31.1370773201       16.2692256809        4.0744547312
  O        31.4634161159       16.4157458108       12.0774699192
  O        29.6109061978       18.1680330677       14.8144771944
  O        39.4569411151       35.2438090839        4.0020131317
  O        19.1415651531        0.0044966416       11.9905332793
  O        41.9692707256       35.1723164599        4.0871059488
  O        21.6912390779       -0.0694780366       11.8961045877
  O        51.3647889826       18.6143502212        4.0052641735
  O        10.7508596508       18.7472053810       11.9050374776
  O        50.0793275853       16.4127824918        4.0917282129
  O         9.5246400841       16.4830809822       11.9912086515
 Zr         9.2966943575       16.0528796923        6.1821787406
 Zr        49.8361653779       16.0069181674        9.7466757308
 Zr        22.0732975417        0.0296416856        6.1893822934
 Zr        42.4609086107       35.1534182354        9.8011719183
 Zr        29.5674909835       19.0361588748        6.2023020407
 Zr        29.5713462559       19.1794386145        9.8107374043
 Zr        11.0371905634       19.0524999422        9.8277236149
 Zr        11.0433414385       19.1552309432        6.2511461454
 Zr        31.3270531328       16.0981755183        9.8483861761
 Zr        31.3423959502       15.9827679148        6.2346743813
 Zr        18.6011103017       -0.0015936387        9.7636452976
 Zr        18.5066734895       -0.0077901567        6.2135304465
 Zr        12.3007822406       16.3231452465        7.9904699931
 Zr        48.6158465071       18.8329013725        8.0101035508
 Zr        20.3148095622        2.4732890093        7.9910525365
 Zr        40.6429281699       32.6868947507        7.9781835973
 Zr        28.3184858210       16.3167677382        8.0745971240
 Zr        32.5998145254       18.8280137959        8.0183899750
  H        31.2734081663       16.8003790523        1.4257436986
