     562
 i =      493, E =     -4525.7747049152
  C        11.8585378865       14.0533786249        5.7414910627
  C        12.4559158782       12.8903924564        5.0232192497
  C        11.7042669113       12.1717074100        4.0813362890
  C        12.2805670276       11.1094609649        3.3889935082
  C        13.6210445046       10.7393627752        3.6168814133
  C        14.3541067376       11.4426009895        4.5906883303
  C        13.7812837407       12.5075900155        5.2822315623
  C        14.2604908418        9.6486313548        2.8435204931
  C        14.2555488351        9.6564691481        1.4218150368
  C        13.7423212673       10.7585321770        0.6678591423
  C        49.1265119287       21.2334142323        5.8797848371
  C        48.5496854349       22.4012891417        5.1527758911
  C        49.2996484876       23.0685169817        4.1716486234
  C        48.7326536381       24.1075369583        3.4383625206
  C        47.4021431812       24.5092341174        3.6670726964
  C        46.6712306484       23.8604162317        4.6806558245
  C        47.2337339958       22.8155962335        5.4100890833
  C        46.7719078595       25.5868814092        2.8697592323
  C        46.7610017231       25.5572426877        1.4480019236
  C        47.2608186398       24.4421072295        0.7044935390
  C        14.8593036222        8.5700487063        0.7085145270
  C        14.8913342133        8.5966794096        3.5201291092
  C        49.1128019144       21.2034451993       10.1453079786
  C        48.5274640868       22.3648048383       10.8723665755
  C        49.2665726980       23.0253154839       11.8655214385
  C        48.6901943974       24.0597986865       12.5970161292
  C        47.3598778394       24.4567867104       12.3585738170
  C        46.6396122328       23.8120569067       11.3348232196
  C        47.2131861111       22.7762154559       10.6029708594
  C        46.7214515019       25.5317101419       13.1496430762
  C        46.7332065575       25.5280319258       14.5713446371
  C        47.2485882108       24.4287938752       15.3277307651
  C        40.6166390923       17.0631797944       15.3182101677
  C        40.6345990536       17.1095191900       12.5078544829
  C        11.8826516201       14.0862317473       10.2854475414
  C        12.4715400660       12.9101603410       10.9894854190
  C        11.7139799040       12.1774838839       11.9159848285
  C        12.2802997897       11.0948993309       12.5843968114
  C        13.6188707410       10.7204828440       12.3521929677
  C        14.3567742422       11.4354229549       11.3908535476
  C        13.7916391351       12.5167241578       10.7181498788
  C        14.2522748451        9.6237005565       13.1226765233
  C        14.2512015437        9.6438387391       14.5445167309
  C        13.7415225508       10.7528698969       15.2916008331
  C        22.5026592688        3.2421752131        5.7467744680
  C        23.1984007337        4.3452904847        5.0292052780
  C        24.1968647452        4.0636238637        4.0855315894
  C        24.8126209759        5.1016880845        3.3922247766
  C        24.4432960764        6.4413477764        3.6230644464
  C        23.4680750019        6.7147218330        4.5990256964
  C        22.8487903365        5.6786987248        5.2916968080
  C        25.0506858965        7.5470035909        2.8511785244
  C        25.0517388428        7.5353220777        1.4305087749
  C        24.3662136236        6.5319045802        0.6753673886
  C        38.3000745342       31.9274153737        5.8487245529
  C        37.5631817430       30.8396688418        5.1402633528
  C        36.5993025348       31.1491566357        4.1679360975
  C        35.9706100786       30.1337489545        3.4520211777
  C        36.2896438875       28.7813802511        3.6848101423
  C        37.2248199066       28.4792987517        4.6930939929
  C        37.8575179819       29.4937326515        5.4084914830
  C        35.6748726454       27.6945324163        2.8868677779
  C        35.7046329091       27.7101795864        1.4646891881
  C        36.4145102625       28.7097444879        0.7274790700
  C        25.6863440597        8.6048379552        0.7207998229
  C        25.6277694103        8.6260812680        3.5311566867
  C        38.3269285106       31.9607153424       10.1570439698
  C        37.6009465092       30.8884870474       10.8989041240
  C        36.6674588318       31.2001396164       11.8996711533
  C        36.0496289131       30.1844693282       12.6272988609
  C        36.3499549809       28.8297961409       12.3793525130
  C        37.2622675518       28.5281814503       11.3492665674
  C        37.8820630605       29.5405045105       10.6224901847
  C        35.7327400694       27.7334742344       13.1628793282
  C        35.7342013725       27.7300313105       14.5856400537
  C        36.4276878979       28.7198743683       15.3506213382
  C        46.1352151935       26.6206709315       15.2814881428
  C        46.0875628679       26.5800877889       12.4735617920
  C        22.4673953625        3.2538195099       10.2502588980
  C        23.1787536987        4.3596915989       10.9579655082
  C        24.1907935417        4.0683558609       11.8863414870
  C        24.8321040353        5.0958531277       12.5731895922
  C        24.4802315564        6.4424352676       12.3540462938
  C        23.4941207833        6.7271722135       11.3911538279
  C        22.8487702246        5.7000159445       10.7037694502
  C        25.1109669601        7.5362016123       13.1329832576
  C        25.0831186498        7.5290282133       14.5548079686
  C        24.3782261617        6.5309420549       15.2990664863
  C        26.5660082559       17.8188606605        5.7560818071
  C        25.2613762632       17.8730468534        5.0363093776
  C        24.9999292601       18.8877197348        4.1025321187
  C        23.7881610418       18.9151987138        3.4175902190
  C        22.8071033809       17.9299400684        3.6447147177
  C        23.0635822105       16.9380571652        4.6092366786
  C        24.2760759424       16.9069592183        5.2945568127
  C        21.5404133537       17.9223760937        2.8757648639
  C        21.5498673358       17.9199097010        1.4542250519
  C        22.7608847433       17.8113808632        0.7000356438
  C        34.4149268521       17.2109376373        5.9127721723
  C        35.7098855855       17.1386844601        5.1742270690
  C        35.9043080024       16.1645428942        4.1823767398
  C        37.0877009938       16.1330375050        3.4490717341
  C        38.1081057970       17.0755976835        3.6840668392
  C        37.9155797279       18.0294000248        4.7022807802
  C        36.7312102379       18.0650285138        5.4350048614
  C        39.3626959592       17.0741351102        2.8955910624
  C        39.3584902437       17.0781453435        1.4728717190
  C        38.1510572154       17.1883640190        0.7136146450
  C        20.3067094630       17.9427188449        0.7419102851
  C        20.3150569567       17.9143791954        3.5540789252
  C        34.4450835073       17.2427179838       10.1821600946
  C        35.7464924493       17.1398463075       10.9050955030
  C        35.9687165451       16.1331030449       11.8572408544
  C        37.1565118801       16.1020553184       12.5842826428
  C        38.1546058903       17.0740191576       12.3765397288
  C        37.9411000276       18.0532481886       11.3880911211
  C        36.7514297348       18.0908748080       10.6662726722
  C        39.4032280782       17.0837343832       13.1726869432
  C        39.3792991122       17.0817715661       14.5942454492
  C        38.1609209897       17.1868159032       15.3366170410
  C        35.0962966847       26.6544205040       15.2892477925
  C        35.1436583938       26.6617179147       12.4795589705
  C        26.5618980399       17.8233935051       10.3247357669
  C        25.2490332086       17.8739067029       11.0271799941
  C        24.9657657304       18.9112060151       11.9282653293
  C        23.7477197861       18.9399725286       12.6005975292
  C        22.7848040575       17.9340223678       12.3899445427
  C        23.0605925576       16.9210955971       11.4543703123
  C        24.2803379068       16.8886029030       10.7823966231
  C        21.5194375669       17.9237119055       13.1585905555
  C        21.5386131417       17.9212249782       14.5790924312
  C        22.7556373547       17.8130256006       15.3237793738
  C        14.0441514811       17.8322328326       10.2828121542
  C        15.3505114169       17.8971670672       10.9983314891
  C        15.6108737066       18.9132861590       11.9302828111
  C        16.8217630529       18.9397012596       12.6178228795
  C        17.8017368280       17.9524433970       12.3936326112
  C        17.5475540521       16.9620182866       11.4270446721
  C        16.3363511476       16.9314076481       10.7406742700
  C        19.0668870127       17.9362551580       13.1640436075
  C        19.0577815279       17.9338003949       14.5852231933
  C        17.8459804731       17.8352713582       15.3389676997
  C        46.8026570456       17.2176578285       10.1591811677
  C        45.5111924672       17.1502550897       10.9045103231
  C        45.3073538423       16.1670648944       11.8854782954
  C        44.1247907035       16.1397099331       12.6204200519
  C        43.1140249105       17.0955436003       12.3980034048
  C        43.3155679743       18.0590732616       11.3908424564
  C        44.4989247548       18.0901065410       10.6563164791
  C        41.8593181242       17.0953026631       13.1865594252
  C        41.8637031895       17.0860911992       14.6091860585
  C        43.0716987708       17.1836952203       15.3691752234
  C        20.3007720666       17.9425955986       15.2982324278
  C        20.2921530756       17.9107439878       12.4859261633
  C        46.7821972422       17.2302367026        5.8883568071
  C        45.4774986837       17.1186420355        5.1733783631
  C        45.2602567842       16.1140969817        4.2176729717
  C        44.0709740592       16.0778637210        3.4932173078
  C        43.0671335198       17.0428950391        3.7063083459
  C        43.2750634904       18.0178065404        4.7002250231
  C        44.4656922842       18.0603407308        5.4199327916
  C        41.8190456224       17.0547245266        2.9093146794
  C        41.8431252245       17.0640304439        1.4877470415
  C        43.0618023383       17.1704609984        0.7460456480
  C        46.1529714343       26.6371011624        0.7262397324
  C        46.1620063623       26.6560511113        3.5358437340
  C        14.0389859239       17.8269277584        5.7055056527
  C        15.3514960090       17.8928377396        5.0028590857
  C        15.6226019621       18.9155116897        4.0820719960
  C        16.8456351144       18.9501583568        3.4175676075
  C        17.8214688002       17.9608455893        3.6496827193
  C        17.5558835904       16.9635878716        4.6050298298
  C        16.3351399144       16.9288117861        5.2735692287
  C        19.0869977260       17.9415400175        2.8817659275
  C        19.0684788271       17.9351790400        1.4609217151
  C        17.8512696147       17.8356975405        0.7150966664
  C        28.7973642426       14.1171316487       10.3986700647
  C        28.2076476076       12.9305683092       11.0786167303
  C        28.9366381017       12.2070693236       12.0335433530
  C        28.3528582089       11.1189473161       12.6776015404
  C        27.0268761938       10.7346766620       12.3928726625
  C        26.3220298241       11.4386955234       11.4000541950
  C        26.9037341434       12.5242351507       10.7521447589
  C        26.3624750977        9.6485409320       13.1478602824
  C        26.3298194307        9.6753154595       14.5683978876
  C        26.8214510594       10.7889256418       15.3209387236
  C        32.1788031411       21.2402970835       10.1076705036
  C        32.7619094089       22.4056663006       10.8376811137
  C        32.0053622812       23.0762670639       11.8116168325
  C        32.5671657121       24.1155874140       12.5483328492
  C        33.9009140769       24.5148595964       12.3329345323
  C        34.6397824950       23.8612257646       11.3279743143
  C        34.0814188405       22.8161821767       10.5938118340
  C        34.5220029322       25.5939056850       13.1375450519
  C        34.5050196475       25.5703124677       14.5600174623
  C        33.9910311702       24.4583821171       15.2991067472
  C        25.7084165197        8.5974800038       15.2771816671
  C        25.7357108379        8.5974657115       12.4656391036
  C        32.0710937018       21.1931443113        5.8428866269
  C        32.6462958357       22.3638053013        5.1142238154
  C        31.9132306684       23.0178005316        4.1116252813
  C        32.4852157129       24.0626738458        3.3886549079
  C        33.8060409575       24.4820083350        3.6446249974
  C        34.5194552267       23.8431862627        4.6774696671
  C        33.9513120784       22.7964339542        5.3990395880
  C        34.4467165033       25.5657651977        2.8621373938
  C        34.4663832288       25.5562202416        1.4392853428
  C        33.9717975180       24.4519751262        0.6759914810
  C        40.6056028434       17.0565061843        0.7637520435
  C        40.5875458227       17.0778650515        3.5740261725
  C        28.6760211589       14.0326066730        5.8256938707
  C        28.0587037899       12.8934386971        5.0869810355
  C        28.8104028260       12.1724722479        4.1462675266
  C        28.2292188396       11.1265654366        3.4360153502
  C        26.8820371753       10.7730874046        3.6459702919
  C        26.1458304850       11.4784805398        4.6157262801
  C        26.7249922860       12.5283937044        5.3258574216
  C        26.2508844486        9.6860247769        2.8627980084
  C        26.2742702068        9.6946738194        1.4420071057
  C        26.7937463298       10.7989504425        0.6965161164
  C        18.1352203616        3.1808935397       10.3171873400
  C        17.4055365849        4.2779739752       11.0157067119
  C        16.3896607909        3.9993339952       11.9429583235
  C        15.7416413375        5.0391585682       12.6064154175
  C        16.0933855131        6.3829422620       12.3669018516
  C        17.0829821263        6.6527142457       11.4034435808
  C        17.7323996757        5.6155438452       10.7384299404
  C        15.4688113848        7.4904503765       13.1300260077
  C        15.4842599999        7.4898738651       14.5517369697
  C        16.1860454937        6.4963831706       15.3048477462
  C        42.9457048090       31.8594955999       10.0728349197
  C        43.6460615040       30.7717507334       10.8167550003
  C        44.5916056226       31.0930835968       11.8027990841
  C        45.1972907611       30.0875322660       12.5504761264
  C        44.8708220954       28.7344796384       12.3356550894
  C        43.9449887562       28.4201540294       11.3224493889
  C        43.3361753878       29.4252847672       10.5743840389
  C        45.4883482807       27.6551752701       13.1388671519
  C        45.4925068869       27.6807913097       14.5605606618
  C        44.8054731726       28.6889054589       15.3071419813
  C        14.8553175424        8.5623958816       15.2640803611
  C        14.8734810573        8.5621482975       12.4514095064
  C        42.9463803136       31.9616236129        5.8090042688
  C        43.6915230225       30.8854267010        5.0954734744
  C        44.6562705190       31.1913036544        4.1233279972
  C        45.2777454781       30.1717150182        3.4055560949
  C        44.9537185712       28.8214381284        3.6430343936
  C        44.0201243826       28.5237600985        4.6536942741
  C        43.3919404756       29.5405562509        5.3658988113
  C        45.5627285126       27.7240327014        2.8577753050
  C        45.5330137749       27.7172888308        1.4364847737
  C        44.8267851929       28.7075810786        0.6835311149
  C        35.0789614714       26.6458809211        0.7352428784
  C        35.0626212008       26.6220250152        3.5459684297
  C        18.1484092260        3.2468108142        5.7065637831
  C        17.4298073644        4.3436010857        4.9970935076
  C        16.4144947098        4.0522660939        4.0736800272
  C        15.7661122887        5.0828884959        3.3983240573
  C        16.1207967433        6.4281356206        3.6209206882
  C        17.1123444539        6.7115435403        4.5779897951
  C        17.7600611018        5.6826691233        5.2577739982
  C        15.4901796580        7.5237881872        2.8484865728
  C        15.4957691094        7.5070508833        1.4273469300
  C        16.1924743270        6.5053026074        0.6806590570
  H        10.6722368061       12.4660681641        3.9041317053
  H        11.6942987242       10.5511648715        2.6622972499
  H        15.3910297775       11.1677344958        4.7726386544
  H        14.3506706663       13.0704809656        6.0179887648
  H        13.3755291955       11.6307733750        1.2011277811
  H        50.3223371434       22.7484436889        3.9868951401
  H        49.3191122309       24.6227784845        2.6807493263
  H        45.6417776315       24.1612835099        4.8638889799
  H        46.6627189480       22.2904304499        6.1722387485
  H        47.6293531189       23.5757319740        1.2461822736
  H        14.8719273683        8.5880412410        4.6084425205
  H        50.2865258582       22.7022648276       12.0605724149
  H        49.2685438087       24.5751106276       13.3606457629
  H        45.6103108415       24.1095444378       11.1455733040
  H        46.6523975795       22.2542543273        9.8312430123
  H        47.6073255208       23.5516418787       14.7968632617
  H        40.6408452445       17.0877217823       11.4197093328
  H        48.6870573739       14.0950610552        7.8000228726
  H        10.6807126887       12.4671031054       12.0936589892
  H        11.6884501967       10.5249046302       13.2973627274
  H        15.3919912086       11.1569434572       11.2046026897
  H        14.3640142125       13.0855832068        9.9892528376
  H        13.3747693560       11.6215210620       14.7529756722
  H        47.9300815840       14.2181592188        9.7107665249
  H        47.7799082145       14.3737225439        6.4953517129
  H        49.0824320395       18.5522444328       10.8670718322
  H        10.4158045633       14.1343295207        7.9987147349
  H        24.4693837449        3.0256128655        3.9085993511
  H        25.5905828990        4.8858886772        2.6631471247
  H        23.1759758368        7.7469864211        4.7802045972
  H        22.0757720865        5.8775586529        6.0298575991
  H        23.7982306267        5.7745732618        1.2078485059
  H        36.3667723668       32.1938306491        3.9752688056
  H        35.2232292866       30.3798833399        2.7008886944
  H        37.4804879749       27.4385753471        4.8814150268
  H        38.6039226564       29.2657223716        6.1658632375
  H        36.9808962299       29.4583940902        1.2737378914
  H        25.6405749211        8.6125373354        4.6194391275
  H        36.4459340246       32.2450916647       12.1047428552
  H        35.3202890555       30.4338771591       13.3948491610
  H        37.5078604348       27.4871588049       11.1498481313
  H        38.6077651979       29.3103969481        9.8461333079
  H        37.0051805114       29.4759119548       14.8264680364
  H        46.1089514240       26.5874945716       11.3855268749
  H        44.6682595923       35.1162104445        7.8142267185
  H        24.4632262895        3.0285444115       12.0521119093
  H        25.6183382472        4.8648093510       13.2887581804
  H        23.2128616587        7.7632061991       11.2137291532
  H        22.0702528612        5.9153887446        9.9755758689
  H        23.8188066949        5.7733375063       14.7581567031
  H        44.9536962634       34.3898328228        9.6946345162
  H        44.9020844685       34.2069373278        6.4907880435
  H        40.6652458750       33.2083543573       10.8528100886
  H        23.1499867505        1.9578105377        8.0021676447
  H        25.7555629440       19.6507956187        3.9312866472
  H        23.5855560455       19.7067528332        2.6993884362
  H        22.3143497426       16.1699668396        4.7897330557
  H        24.4893884045       16.1297974668        6.0247127003
  H        23.6999645149       17.6937851413        1.2329673306
  H        35.1095218645       15.4467876743        3.9924071412
  H        37.2357796521       15.3691649504        2.6888784717
  H        38.6938092376       18.7665145057        4.8890596212
  H        36.5682831182       18.8171082486        6.2035511889
  H        37.2098800924       17.3069889972        1.2429169721
  H        20.3176566589       17.9399566034        4.6423049504
  H        35.1971351660       15.3849361567       12.0244335760
  H        37.3243493668       15.3192334727       13.3208099472
  H        38.7049499128       18.8098633454       11.2209214004
  H        36.5668026790       18.8652069181        9.9255092704
  H        37.2271579640       17.3026162505       14.7938904239
  H        35.1235405642       26.6848446104       11.3915889635
  H        28.5043024128       21.0800747470        7.8798712551
  H        25.7101587223       19.6890451940       12.0817927285
  H        23.5261468969       19.7452400749       13.2976892707
  H        22.3228436541       16.1387355595       11.2886705957
  H        24.5120838504       16.0957896856       10.0751951581
  H        23.6904819405       17.6977918986       14.7830181154
  H        28.9959720217       21.7179142401        9.7426061450
  H        29.1934622797       21.7021961156        6.5445016163
  H        32.1039903198       18.6137408167       10.8935446214
  H        27.3633982211       19.0326977532        8.0621280637
  H        14.8535454050       19.6751368791       12.1006179560
  H        17.0234639157       19.7309718077       13.3366304524
  H        18.2969558431       16.1938866674       11.2475328852
  H        16.1238512744       16.1544631595       10.0102768734
  H        16.9060952231       17.7257470771       14.8059394104
  H        46.0929250769       15.4368922677       12.0652841831
  H        43.9693258361       15.3684783671       13.3716681226
  H        42.5447983915       18.8063131817       11.2135277439
  H        44.6684201376       18.8486357669        9.8955817503
  H        44.0133200760       17.3024249281       14.8407836369
  H        20.2905236454       17.9338370102       11.3976630140
  H        46.0393881354       15.3754510421        4.0436051296
  H        43.9073306963       15.2975984969        2.7530439733
  H        42.5063550935       18.7683249024        4.8724012997
  H        44.6452517178       18.8323589228        6.1642387940
  H        43.9960615548       17.2777590703        1.2895889554
  H        46.1988288239       26.6825744479        4.6232882468
  H        52.7411766250       21.0626283776        8.1946295245
  H        14.8658157195       19.6767245845        3.9061892276
  H        17.0591578158       19.7464252563        2.7077722100
  H        18.3026303503       16.1936997534        4.7879346925
  H        16.1121991455       16.1487968430        5.9974604859
  H        16.9153360682       17.7264176976        1.2548118201
  H        52.3223189769       21.6736249044        6.2947089970
  H        52.0135020396       21.7026512955        9.4953754405
  H        49.0667510202       18.6075666680        5.2043048950
  H        13.2470476273       19.0163316389        7.9754658997
  H        29.9552976422       12.5155236919       12.2583877120
  H        28.9182981697       10.5557418717       13.4168330498
  H        25.2976964075       11.1506097025       11.1730965895
  H        26.3571345856       13.0889160622       10.0010270851
  H        27.1944091599       11.6575042250       14.7866285931
  H        30.9804741602       22.7571736163       11.9862850414
  H        31.9737924316       24.6337926192       13.2985054468
  H        35.6721431092       24.1581012543       11.1545034880
  H        34.6594451645       22.2885996936        9.8384935806
  H        33.6375716042       23.5879269710       14.7538249958
  H        25.7780304114        8.5796808924       11.3780158175
  H        30.8993803172       22.6840307138        3.9024931246
  H        31.9083582207       24.5693258172        2.6180127006
  H        35.5416214043       24.1540662925        4.8833981299
  H        34.5104857521       22.2825001775        6.1773208155
  H        33.6038097781       23.5761489411        1.2028395069
  H        40.5811535033       17.0471936047        4.6619486858
  H        32.5111954529       14.1505230244        8.2524840076
  H        29.8525083240       12.4419295809        3.9918837089
  H        28.8169748023       10.5641203987        2.7138278803
  H        25.1034185127       11.2149531778        4.7825604215
  H        26.1553149075       13.0913598258        6.0614823009
  H        27.1450014801       11.6745692979        1.2348243774
  H        33.2958255225       14.2179316219        6.4366746397
  H        33.4030074501       14.3966788198        9.6069506570
  H        32.0874895784       18.5025116345        5.1131145739
  H        30.1956736165       14.1398585316        8.0778292479
  H        16.1177853086        2.9627447765       12.1291505829
  H        14.9520770654        4.8195345008       13.3218769870
  H        17.3653569130        7.6856549564       11.2106094120
  H        18.5146375664        5.8184256185       10.0108594094
  H        16.7525784744        5.7390649333       14.7712931319
  H        44.8279147333       32.1401683908       11.9769479154
  H        45.9371675093       30.3412828387       13.3064125905
  H        43.6822497934       27.3780889596       11.1523538267
  H        42.5995628144       29.1899845951        9.8096986190
  H        44.2301697593       29.4367051959       14.7688297902
  H        14.8496774841        8.5453202971       11.3631939241
  H        44.8999271066       32.2339801577        3.9319891282
  H        46.0247185183       30.4129281294        2.6523795033
  H        43.7629589987       27.4840502330        4.8450858714
  H        42.6453067204       29.3178111293        6.1242290925
  H        44.2683122574       29.4704832359        1.2181349368
  H        35.0207210197       26.6340504359        4.6335113395
  H        36.6052788764       35.1339572614        8.1805851598
  H        16.1433978842        3.0126700132        3.9040865114
  H        14.9736989446        4.8559835659        2.6883582122
  H        17.3959331535        7.7470106821        4.7547433221
  H        18.5429343259        5.8931540449        5.9825320261
  H        16.7641191581        5.7552070125        1.2190739339
  H        36.2790214918       34.4818988288        6.2734053435
  H        36.3809739203       34.2090656001        9.4996239398
  H        40.5796306782       33.2023042485        5.1538858038
  H        17.4707364760        1.9472261665        7.9739697736
  H        28.6992771472       18.9244524266       12.2005447566
  H        28.7561806675       18.6754860703        3.7566157884
  H        30.6673851722       15.3717994895        3.7845956010
  H        32.3674460094       16.5418288245       12.3048568116
  H        29.3148444697       19.1459151558       14.8486473053
  H        18.8537370403        0.8690122756       12.3352123142
  H        40.5285104771       35.2291115597        3.9521990730
  H        42.3238530478       34.4192224942        3.5902497945
  H        22.0872618086        0.6921181537       12.3517779337
  H        11.5966919682       18.7126706466       12.3824537364
  H        52.2647807630       18.4313582288        3.6775468067
  H        49.2553481943       16.4764934388        3.5839604399
  H        10.1501547532       15.7983189866       12.2926839204
  H        50.8499291134       17.6926190914        3.9540362339
  H        10.0458901907       17.3947812513       12.0519264322
  H        20.2150049783        0.0019792578       12.0419473069
  H        39.1838447378       36.1244268029        3.6863940844
 Ni        30.6036189875       17.5820250826        2.7534898474
 Ni        30.2757149237       17.5658557337        0.4972266374
 Ni        30.3924693377       17.5982237690       13.2407124899
  O        10.6497834323       14.3651821426        5.4858253522
  O        12.6130384887       14.6573715921        6.5837978770
  O        49.1475307715       16.8459550028        7.9896678969
  O        50.3500225968       20.9363522923        5.6482423432
  O        48.3484116647       20.5932045110        6.6659782462
  O        11.0507874753       17.0541385812        6.5005108889
  O        50.3206033787       20.8816869964       10.4068746178
  O        48.3465443630       20.5866323114        9.3270113662
  O        49.5431948850       18.2484961905       10.0683037114
  O        12.3586200120       18.6246621940        7.9995952138
  O        48.6931633896       14.1486202685        6.7512669259
  O         8.2098268657       14.2104325401        9.3225341996
  O        10.7351450834       14.5067545118       10.6643220073
  O        12.5716523806       14.5826528460        9.3286004842
  O        22.8441026379        2.0420921454        5.4878056538
  O        21.6035142322        3.5912577428        6.5905269727
  O        42.0579576055       34.1370308262        7.9791436222
  O        37.9813090408       33.1362682140        5.5721892292
  O        39.2171072062       31.5748590267        6.6652836686
  O        20.3083820907        1.0396309613        6.5019375126
  O        38.0242537666       33.1850469930       10.4155278004
  O        39.2180403340       31.5827067386        9.3275837244
  O        40.6521011049       33.7690739154       10.0602036476
  O        18.2556079934        1.3763285200        7.9967523235
  O        44.6222370087       35.1005862269        6.7588777202
  O        24.2055020406       -0.0001677941        9.3207476538
  O        22.7529357179        2.0558915098       10.5826541181
  O        21.6244233409        3.5953977443        9.3419254331
  O        27.4630053108       18.6812791475        5.4207262525
  O        26.6925256919       16.9285505563        6.6599235257
  O        30.6282478353       19.3488789354        7.9942367170
  O        33.5357302880       16.3253876096        5.6556598540
  O        34.2674369972       18.1772116380        6.7413056690
  O        29.5329037478       17.0085486531        6.5749300060
  O        33.5546461237       16.3430593135       10.4211006833
  O        34.2986627482       18.2381249158        9.4028094847
  O        31.6481047820       18.3273261240       10.0858185186
  O        30.2890394928       15.1062431427        8.0807743744
  O        28.5513843889       21.0252575228        6.8273880138
  O        28.5081790389       20.9540550017        9.3910228994
  O        27.4527199826       18.6779070264       10.6566879810
  O        26.6893327998       16.9287163362        9.4156146385
  O        13.1458818329       18.6939533191       10.5859246527
  O        13.9171425364       16.9157713249        9.4034385598
  O        50.5955446987       19.3503293814        8.0204689749
  O        47.6824137506       16.3272590576       10.4175043600
  O        46.9498993081       18.1755710085        9.3258207425
  O        11.0686117350       17.0161082610        9.4895326740
  O        47.6744335619       16.3358987456        5.6528677653
  O        46.9242254180       18.2358443297        6.6628090547
  O        49.5685377165       18.3177895336        5.9822206926
  O        10.3185774805       15.1001953515        7.9971282208
  O        52.6706942587       21.0280512074        9.2418136396
  O        12.1468172375       20.8914270708        6.6733091184
  O        13.1049435523       18.6141550811        5.3262272590
  O        13.9549210397       16.9861165509        6.6656032935
  O        29.9628600080       14.5107144409       10.7426062844
  O        28.0765023822       14.6561245770        9.4896804695
  O        32.0683361780       16.8528366272        8.0663999769
  O        30.9578636592       20.9520727783       10.3358439009
  O        32.9558351012       20.5916346759        9.3232562627
  O        29.5587183049       17.0714337999        9.5715065432
  O        30.8528050348       20.8735303240        5.5855561316
  O        32.8540818590       20.5846122319        6.6523534862
  O        31.6139810979       18.2355649781        5.9177795511
  O        28.2508535715       18.6384176170        8.0505603833
  O        32.4877799247       14.2144185230        9.3274613332
  O        32.4032125514       14.2140887883        6.8209917284
  O        29.8668281880       14.3671057925        5.5004862929
  O        27.9671683992       14.5816292085        6.7430639018
  O        17.8891897116        1.9665328873       10.6628246214
  O        18.9561089467        3.5271584411        9.4081285698
  O        39.1684406720       34.1385944939        7.9971672103
  O        43.2802068307       33.0588386588       10.3316952170
  O        42.0343266251       31.5064226120        9.2415935233
  O        20.3172933004        1.0361394759        9.4802971529
  O        43.2761647016       33.1825141169        5.5748952304
  O        42.0052128856       31.5841543230        6.5830271748
  O        40.5790148399       33.7750126470        5.9359924129
  O        22.3670809065        1.3842780217        7.9980869530
  O        36.6727659885       35.0997297397        9.2332706516
  O        16.4456093927        0.0641162274        6.6682346091
  O        17.9363458797        2.0431577086        5.3263619847
  O        18.9187046775        3.5931028381        6.6658861628
  O        29.6986280284       18.7557162809        4.0007086634
  O        29.6575601475       18.9684255641       12.0080945119
  O        31.0987965588       16.1941609179        4.0804695105
  O        31.4230782916       16.4810467709       12.0769318537
  O        29.6593642941       18.2383248020       14.8899917941
  O        39.4570147088       35.2438275983        4.0019865402
  O        19.1414819349        0.0044630268       11.9905561762
  O        41.9696332240       35.1729486756        4.0872117806
  O        21.6912538953       -0.0695172621       11.8961488091
  O        51.3648037863       18.6143552430        4.0052625667
  O        10.7508769458       18.7472287348       11.9050006192
  O        50.0795258874       16.4127398139        4.0917032065
  O         9.5242413401       16.4831612783       11.9912257207
 Zr         9.2965494327       16.0528988197        6.1821466497
 Zr        49.8361129145       16.0069291064        9.7466833976
 Zr        22.0733690879        0.0296512978        6.1894336334
 Zr        42.4608890837       35.1533980261        9.8011915198
 Zr        29.5666344301       19.0408449398        6.2216858260
 Zr        29.5686467453       19.1834687610        9.8211201890
 Zr        11.0371299070       19.0525241224        9.8276953873
 Zr        11.0433294490       19.1552536524        6.2511480608
 Zr        31.3232607188       16.1013925520        9.8712276268
 Zr        31.3468869292       15.9789714192        6.2583415456
 Zr        18.6010854427       -0.0016084365        9.7636128446
 Zr        18.5066963404       -0.0077786122        6.2135614750
 Zr        12.3006680994       16.3231176956        7.9904999111
 Zr        48.6157244841       18.8328558920        8.0100717118
 Zr        20.3147244562        2.4732071800        7.9911346096
 Zr        40.6429149833       32.6869085423        7.9781877499
 Zr        28.3185425721       16.3182712509        8.0810346519
 Zr        32.6009137523       18.8277608228        8.0224287366
  H        31.2912489405       16.8340334711        1.5286913462
