     562
 i =      151, E =     -4525.7307049928
  C        11.8586585434       14.0534248847        5.7415459890
  C        12.4562282592       12.8905313668        5.0230909610
  C        11.7047308760       12.1720463925        4.0809628029
  C        12.2810466685       11.1098086001        3.3886206121
  C        13.6214242460       10.7395425521        3.6167553954
  C        14.3543781811       11.4426471351        4.5907305374
  C        13.7815125530       12.5076214473        5.2822637717
  C        14.2608644812        9.6488395657        2.8433794838
  C        14.2559733329        9.6566584761        1.4216780747
  C        13.7428515680       10.7587741990        0.6677280881
  C        49.1167551060       21.2078078672        5.8515796104
  C        48.5469562608       22.3860488824        5.1448245270
  C        49.2575762174       23.0024436507        4.1012406099
  C        48.6831079401       24.0408308938        3.3781309759
  C        47.3855695297       24.5086561938        3.6856966454
  C        46.7062450989       23.9199739005        4.7753524366
  C        47.2715772530       22.8667762414        5.4849313124
  C        46.7410505033       25.5689515956        2.9023864007
  C        46.7538766199       25.5527878204        1.4461471187
  C        47.2034824794       24.4410623664        0.7199098026
  C        14.8597054732        8.5702107638        0.7084086991
  C        14.8916508186        8.5968759119        3.5200081654
  C        49.1181409735       21.2057022059       10.1400577104
  C        48.5382764307       22.3720098617       10.8553186939
  C        49.2384649424       22.9786361520       11.9114377103
  C        48.6518385274       24.0026114460       12.6449942561
  C        47.3517706562       24.4637901688       12.3362986305
  C        46.6815832047       23.8814962652       11.2368371620
  C        47.2593528825       22.8441433963       10.5161360838
  C        46.6981045315       25.5175901222       13.1175306717
  C        46.7303579043       25.5260482668       14.5731714101
  C        47.1935779943       24.4285688164       15.3125569961
  C        40.6169651559       17.0646156784       15.3179547651
  C        40.6345924325       17.1119984744       12.5076021094
  C        11.8826094503       14.0862534846       10.2854492276
  C        12.4714943450       12.9100493969       10.9893915624
  C        11.7140672133       12.1776118174       11.9161668336
  C        12.2803580922       11.0950081402       12.5845757970
  C        13.6188074810       10.7203600526       12.3520893510
  C        14.3565696911       11.4350061146       11.3904298597
  C        13.7914309780       12.5163215767       10.7177538345
  C        14.2523314326        9.6236683575       13.1225788216
  C        14.2514458218        9.6439127536       14.5444153542
  C        13.7419663044       10.7530525552       15.2914738429
  C        22.5028502259        3.2419444891        5.7470917409
  C        23.1992592953        4.3452631847        5.0302021106
  C        24.1980140384        4.0636180488        4.0868841170
  C        24.8140851887        5.1017507373        3.3939484148
  C        24.4446657369        6.4413075237        3.6249801772
  C        23.4693763381        6.7147324860        4.6007966771
  C        22.8497711208        5.6785962638        5.2930302655
  C        25.0516856172        7.5470305954        2.8529090852
  C        25.0510654687        7.5358002055        1.4322587420
  C        24.3648213327        6.5324161573        0.6776966163
  C        38.2999751086       31.9275944721        5.8486404140
  C        37.5628765520       30.8400167457        5.1398243794
  C        36.5977956108       31.1499538554        4.1688691718
  C        35.9684724406       30.1349209908        3.4529582408
  C        36.2881677485       28.7825380785        3.6845561833
  C        37.2248625009       28.4799159385        4.6912198873
  C        37.8581853105       29.4940395917        5.4065702248
  C        35.6723640667       27.6961376550        2.8867627740
  C        35.7012342793       27.7120496541        1.4645865220
  C        36.4114077241       28.7114172218        0.7274050639
  C        25.6847925943        8.6055468125        0.7221577700
  C        25.6300017363        8.6256202113        3.5325583361
  C        38.3270409331       31.9607908927       10.1569386434
  C        37.6009393634       30.8886594576       10.8991994182
  C        36.6663115628       31.2006830385       11.8987507659
  C        36.0479096430       30.1853255713       12.6263515322
  C        36.3488704446       28.8306339109       12.3794411785
  C        37.2625483886       28.5285591620       11.3507444192
  C        37.8828817394       29.5406385324       10.6240252753
  C        35.7307503088       27.7347203799       13.1628600738
  C        35.7311457902       27.7316451953       14.5856136863
  C        36.4247402639       28.7214519042       15.3505581877
  C        46.1612437954       26.6359184710       15.2817005548
  C        46.0310135019       26.5480227065       12.4492629434
  C        22.4665690957        3.2537286222       10.2505586113
  C        23.1764011013        4.3599656830       10.9593813746
  C        24.1892349784        4.0692410642       11.8870015237
  C        24.8293818590        5.0971004346       12.5743953868
  C        24.4754059200        6.4432504776       12.3562910280
  C        23.4881872388        6.7274812364       11.3944445868
  C        22.8440253664        5.6999235619       10.7066030768
  C        25.1057525498        7.5373648677       13.1349047726
  C        25.0792765772        7.5301254119       14.5566869050
  C        24.3754710523        6.5316382378       15.3014025913
  C        26.5657055254       17.8197148281        5.7560950693
  C        25.2608803531       17.8744674076        5.0367583232
  C        24.9988088822       18.8908592196        4.1049799747
  C        23.7872262378       18.9188722294        3.4197550483
  C        22.8069096784       17.9322850556        3.6444357034
  C        23.0639094673       16.9386377873        4.6070033389
  C        24.2762182141       16.9071159589        5.2927058425
  C        21.5403882831       17.9253121507        2.8751326357
  C        21.5500711760       17.9249512086        1.4535904163
  C        22.7612847744       17.8189590385        0.6993722588
  C        34.4179385034       17.2111100789        5.9153172652
  C        35.7131019661       17.1396847345        5.1771448638
  C        35.9061974832       16.1667142261        4.1838790839
  C        37.0888767246       16.1356425208        3.4495418851
  C        38.1097840932       17.0775919847        3.6848146312
  C        37.9185415313       18.0302200530        4.7043987611
  C        36.7348156553       18.0653985674        5.4382485072
  C        39.3638077960       17.0761240571        2.8955955389
  C        39.3591734545       17.0799260126        1.4728821189
  C        38.1516018685       17.1900395111        0.7137969529
  C        20.3069900694       17.9474464760        0.7410998409
  C        20.3149104710       17.9156409562        3.5532059579
  C        34.4447740061       17.2422911659       10.1824171296
  C        35.7460871044       17.1403088536       10.9058072313
  C        35.9710431417       16.1316171111       11.8552709501
  C        37.1587072403       16.1016289913       12.5825139829
  C        38.1546341754       17.0762915272       12.3769698656
  C        37.9388799288       18.0572688034       11.3908380962
  C        36.7490151733       18.0940318117       10.6692455368
  C        39.4034292769       17.0861302726       13.1727528256
  C        39.3795511540       17.0835069359       14.5942280928
  C        38.1612509953       17.1882687007       15.3367840226
  C        35.0921631105       26.6566329844       15.2891823415
  C        35.1418913195       26.6629087757       12.4794689110
  C        26.5630040561       17.8252126629       10.3246004758
  C        25.2494929550       17.8780341599       11.0259339985
  C        24.9667652361       18.9165897874       11.9258214268
  C        23.7487703568       18.9467850521       12.5982689593
  C        22.7852719289       17.9410874455       12.3889630689
  C        23.0604453984       16.9271724790       11.4542403100
  C        24.2801028134       16.8931427786       10.7821810238
  C        21.5199930884       17.9313769713       13.1578063085
  C        21.5391271369       17.9288928502       14.5782988888
  C        22.7561677225       17.8218290057       15.3231209230
  C        14.0439530879       17.8327437489       10.2826257794
  C        15.3506465310       17.8986579183       10.9979386356
  C        15.6105907794       18.9155159962       11.9291646083
  C        16.8216158225       18.9431589237       12.6164542101
  C        17.8022199547       17.9565034928       12.3925864940
  C        17.5484051383       16.9651693653       11.4268601480
  C        16.3370044980       16.9333467087       10.7407736739
  C        19.0674283429       17.9416304392       13.1630618105
  C        19.0582970599       17.9387462841       14.5842500040
  C        17.8464717853       17.8386565258       15.3377519572
  C        46.8028421473       17.2177848098       10.1589573028
  C        45.5112092007       17.1505971461       10.9043708416
  C        45.3060733194       16.1660287730       11.8836165194
  C        44.1234210841       16.1389840085       12.6184735391
  C        43.1140704888       17.0965956054       12.3974717254
  C        43.3168301992       18.0615910507       11.3920360002
  C        44.5003094247       18.0922548774       10.6576667920
  C        41.8594004611       17.0967589097       13.1860964960
  C        41.8639011813       17.0870624141       14.6086938634
  C        43.0721579934       17.1834939322       15.3684336696
  C        20.3012088692       17.9486088769       15.2973927457
  C        20.2927407932       17.9174351250       12.4850402020
  C        46.7824791056       17.2303389922        5.8881214285
  C        45.4780599163       17.1193061849        5.1724052982
  C        45.2600757694       16.1135574220        4.2182213380
  C        44.0708823758       16.0774892429        3.4936009472
  C        43.0682090579       17.0439483981        3.7052848274
  C        43.2769766412       18.0203543527        4.6974635230
  C        44.4675046748       18.0626976890        5.4172981709
  C        41.8200296220       17.0558173953        2.9086065807
  C        41.8437787299       17.0648384457        1.4871127793
  C        43.0624790762       17.1701845729        0.7452990632
  C        46.1770232699       26.6510933732        0.7261871347
  C        46.0993721248       26.6193362286        3.5628891909
  C        14.0391459853       17.8267160230        5.7054702890
  C        15.3517664888       17.8929301146        5.0026792915
  C        15.6224562991       18.9157161391        4.0819191595
  C        16.8452901347       18.9506485599        3.4170362595
  C        17.8213582057       17.9614857227        3.6487398690
  C        17.5561051491       16.9639515471        4.6038920223
  C        16.3355665486       16.9289569735        5.2728782703
  C        19.0869108936       17.9430810530        2.8807778478
  C        19.0686364356       17.9380181733        1.4599050967
  C        17.8515932016       17.8380777946        0.7138742557
  C        28.7932283228       14.1148874458       10.3955122516
  C        28.2020330088       12.9293894517       11.0759439715
  C        28.9313434020       12.2055225788       12.0304136732
  C        28.3470883219       11.1186604060       12.6759862713
  C        27.0203454728       10.7357780917       12.3929048786
  C        26.3151937050       11.4399384429       11.4004001858
  C        26.8973375142       12.5244662099       10.7510767307
  C        26.3563913788        9.6500373874       13.1486856457
  C        26.3255117129        9.6766220107       14.5692335554
  C        26.8178693754       10.7901096820       15.3214828748
  C        32.1781929146       21.2403572816       10.1081854649
  C        32.7603780432       22.4068492368       10.8369355444
  C        32.0023954424       23.0798008094       11.8082204872
  C        32.5637240435       24.1192679034       12.5450686055
  C        33.8984957111       24.5165715675       12.3324809825
  C        34.6387325443       23.8610839789       11.3296972691
  C        34.0808751234       22.8157897000       10.5954858964
  C        34.5190347861       25.5957612545       13.1373758543
  C        34.5002823722       25.5728927151       14.5598542746
  C        33.9842213238       24.4619824234       15.2990336386
  C        25.7050990995        8.5985900406       15.2785436918
  C        25.7293364134        8.5988721476       12.4669798427
  C        32.0705999362       21.1944511653        5.8439039350
  C        32.6451075510       22.3658029200        5.1159802517
  C        31.9105562379       23.0207591891        4.1150267431
  C        32.4817347229       24.0656405157        3.3914885484
  C        33.8032731712       24.4841131253        3.6451689880
  C        34.5181815357       23.8444271550        4.6764833048
  C        33.9508712004       22.7976026020        5.3986330520
  C        34.4431060560       25.5680365130        2.8622117980
  C        34.4612986300       25.5590342022        1.4393236411
  C        33.9647902403       24.4556959412        0.6759434911
  C        40.6061067751       17.0578305182        0.7634516093
  C        40.5888299671       17.0794941437        3.5736725850
  C        28.6778365591       14.0337085811        5.8244694299
  C        28.0609006533       12.8935923843        5.0867754636
  C        28.8118796098       12.1736539608        4.1447389796
  C        28.2307244985       11.1273742116        3.4350234399
  C        26.8840983127       10.7726566890        3.6466352171
  C        26.1487140970       11.4769471892        4.6177889503
  C        26.7279373670       12.5270818708        5.3274997993
  C        26.2523201346        9.6857965574        2.8637977590
  C        26.2736700873        9.6951123369        1.4429809211
  C        26.7918555767       10.7997728320        0.6971123340
  C        18.1352777831        3.1807887786       10.3171263738
  C        17.4055566632        4.2779202720       11.0156589592
  C        16.3898463403        3.9992596560       11.9430651091
  C        15.7417849106        5.0390455157       12.6065432156
  C        16.0933724071        6.3828299606       12.3668728806
  C        17.0827303818        6.6526610330       11.4031924862
  C        17.7321559023        5.6154977345       10.7381776705
  C        15.4688594393        7.4903989267       13.1299284418
  C        15.4844493589        7.4899214423       14.5516335853
  C        16.1862676981        6.4964643770       15.3047637221
  C        42.9480705578       31.8611707091       10.0683559527
  C        43.6540857351       30.7742754703       10.8012980884
  C        44.5486228527       31.0919039437       11.8366198707
  C        45.1434532303       30.0838180683       12.5853044502
  C        44.8727858106       28.7242634831       12.3135682402
  C        44.0088203476       28.4177017502       11.2388749471
  C        43.3996568055       29.4266268722       10.5013029801
  C        45.4684759677       27.6434527956       13.1072974512
  C        45.4996395675       27.6864988810       14.5626207523
  C        44.8029107996       28.6593956493       15.2930376416
  C        14.8555973766        8.5624906485       15.2639776938
  C        14.8733439331        8.5619975133       12.4513241333
  C        42.9509525754       31.9629268572        5.8147539191
  C        43.7051798661       30.8895828454        5.1162893488
  C        44.6114027189       31.1891652774        4.0850331950
  C        45.2191242486       30.1663178652        3.3652394589
  C        44.9584121678       28.8105322581        3.6687766692
  C        44.0986836042       28.5247623788        4.7527178673
  C        43.4708550030       29.5453806940        5.4541443750
  C        45.5398774653       27.7108506874        2.8921306787
  C        45.5376509540       27.7209119184        1.4360341736
  C        44.8233290748       28.6771145803        0.7003196167
  C        35.0746930790       26.6482139544        0.7351987646
  C        35.0602118517       26.6236598198        3.5459331406
  C        18.1484176658        3.2467847280        5.7066066954
  C        17.4298026520        4.3436451493        4.9971381739
  C        16.4146484093        4.0523691761        4.0735501048
  C        15.7663225376        5.0829920832        3.3981377631
  C        16.1209543528        6.4282256767        3.6208510837
  C        17.1123240574        6.7116247403        4.5781032315
  C        17.7599600076        5.6827089354        5.2579052626
  C        15.4904087373        7.5239071601        2.8484228105
  C        15.4960923931        7.5071962394        1.4272859120
  C        16.1927861504        6.5054576585        0.6805739259
  H        10.6727587205       12.4665512800        3.9036506744
  H        11.6948665012       10.5516267697        2.6617669188
  H        15.3912230497       11.1676145014        4.7728720073
  H        14.3507300314       13.0703767692        6.0182544387
  H        13.3761397665       11.6310518107        1.2009880374
  H        50.2539299458       22.6387894417        3.8611837645
  H        49.2392727381       24.5135817182        2.5720223244
  H        45.7043452482       24.2656347096        5.0209739082
  H        46.7326102516       22.3810832383        6.2950740564
  H        47.5371370820       23.5550080429        1.2515509178
  H        14.8720853743        8.5881413855        4.6083168252
  H        50.2351180930       22.6166206078       12.1533649138
  H        49.2010734951       24.4707092832       13.4584116570
  H        45.6773017122       24.2203156157       10.9917902932
  H        46.7280890078       22.3633233614        9.6981418959
  H        47.5203100293       23.5334683142       14.7917509638
  H        40.6406825001       17.0908755891       11.4194400315
  H        48.6871228353       14.0950010556        7.8004966284
  H        10.6809082166       12.4674649569       12.0941004426
  H        11.6886497884       10.5252016626       13.2978082162
  H        15.3916773682       11.1563174777       11.2038884917
  H        14.3636233986       13.0850200164        9.9885858019
  H        13.3751877747       11.6216734481       14.7528203621
  H        47.9299428775       14.2185199988        9.7105467853
  H        47.7796103890       14.3735571165        6.4958367525
  H        49.0828901153       18.5557184574       10.8649626084
  H        10.4159483207       14.1341408407        7.9991272827
  H        24.4703508428        3.0255711484        3.9098567252
  H        25.5921022807        4.8860646823        2.6648957995
  H        23.1773094449        7.7469938421        4.7820455351
  H        22.0765188823        5.8772434267        6.0310036761
  H        23.7975674991        5.7749087164        1.2107086099
  H        36.3648332565       32.1947362970        3.9772982419
  H        35.2201004000       30.3813996231        2.7029167479
  H        37.4812318648       27.4391394846        4.8782906964
  H        38.6060024222       29.2658090087        6.1624851979
  H        36.9778198714       29.4599539518        1.2738071781
  H        25.6441453684        8.6116174430        4.6208176661
  H        36.4443436248       32.2457313556       12.1028591742
  H        35.3176718852       30.4350286011       13.3929601455
  H        37.5087967204       27.4874875218       11.1523773447
  H        38.6097428542       29.3103554301        9.8487951460
  H        37.0024143379       29.4773107562       14.8263347370
  H        46.0391677913       26.5488074096       11.3610632176
  H        44.6687953030       35.1155961433        7.8136578160
  H        24.4631929038        3.0296457300       12.0516355970
  H        25.6163618744        4.8667038123       13.2893525839
  H        23.2052582121        7.7632557873       11.2181676415
  H        22.0647156462        5.9145697625        9.9790427334
  H        23.8158418637        5.7739511710       14.7608045505
  H        44.9532761535       34.3898390377        9.6952586309
  H        44.9006784194       34.2068285512        6.4890365424
  H        40.6657760922       33.2076852001       10.8521290270
  H        23.1502420894        1.9573156339        8.0023448923
  H        25.7538016678       19.6550044623        3.9357401800
  H        23.5840864534       19.7118944521        2.7033260197
  H        22.3152286537       16.1695894942        4.7857040151
  H        24.4898297174       16.1285521209        6.0212859645
  H        23.7003876184       17.7020732405        1.2324050175
  H        35.1106669783       15.4497819910        3.9939083913
  H        37.2362144856       15.3725597482        2.6884182951
  H        38.6972807544       18.7667429166        4.8913892792
  H        36.5727555059       18.8166475191        6.2078146817
  H        37.2105794666       17.3087360916        1.2433550412
  H        20.3172846642       17.9398272708        4.6414647729
  H        35.2023813318       15.3798492339       12.0195931526
  H        37.3286163117       15.3173541959       13.3170302335
  H        38.7012504739       18.8157011367       11.2251098433
  H        36.5626794693       18.8696725852        9.9302759763
  H        37.2274596543       17.3038848318       14.7940616412
  H        35.1230816102       26.6854387274       11.3914619323
  H        28.5043648012       21.0774101089        7.8799833074
  H        25.7115978301       19.6943054773       12.0779802718
  H        23.5276118568       19.7530808191       13.2943237995
  H        22.3221767032       16.1451176173       11.2893803484
  H        24.5112082311       16.0994402220       10.0757578966
  H        23.6911568155       17.7082995091       14.7822911944
  H        29.0009336290       21.7157757773        9.7410145802
  H        29.1951443183       21.7008012257        6.5468793626
  H        32.1198353931       18.6158626027       10.8869536257
  H        27.3648667333       19.0291109218        8.0637224349
  H        14.8527517588       19.6769526324       12.0990841168
  H        17.0228685375       19.7349994729       13.3347700659
  H        18.2982273844       16.1973573481       11.2477164642
  H        16.1248050584       16.1557812132       10.0109336412
  H        16.9067854019       17.7285894287       14.8044726764
  H        46.0907507768       15.4346055330       12.0622573809
  H        43.9668623866       15.3668218507       13.3685491928
  H        42.5471825214       18.8103070137       11.2160690784
  H        44.6712438070       18.8520333993        9.8985016719
  H        44.0137349078       17.3011776485       14.8397131297
  H        20.2911022668       17.9404098105       11.3967731402
  H        46.0385284391       15.3738584074        4.0455618614
  H        43.9064024329       15.2963138189        2.7545625209
  H        42.5091129230       18.7720756474        4.8681610986
  H        44.6481394925       18.8357885215        6.1602251773
  H        43.9968753557       17.2764420028        1.2888282884
  H        46.1226761412       26.6372409113        4.6508866105
  H        52.7365712234       21.0650734570        8.1943150847
  H        14.8654001089       19.6767188192        3.9062678040
  H        17.0584729957       19.7471185724        2.7073657429
  H        18.3029446152       16.1940667100        4.7864550617
  H        16.1128652839       16.1487985080        5.9967015587
  H        16.9157207006       17.7276365763        1.2534703903
  H        52.3319943291       21.6766341211        6.2800258555
  H        52.0140585165       21.7014857864        9.4995055250
  H        49.0720894995       18.6041193054        5.2016203167
  H        13.2463945304       19.0165069989        7.9754723207
  H        29.9507596368       12.5129486351       12.2533084051
  H        28.9126832928       10.5550724098       13.4148092886
  H        25.2903708896       11.1525891942       11.1746866292
  H        26.3505219897       13.0893494688       10.0002260734
  H        27.1899925079       11.6588387529       14.7868485716
  H        30.9765679016       22.7627065051       11.9808495975
  H        31.9692245273       24.6390719856       13.2932502177
  H        35.6717957584       24.1566319296       11.1581494217
  H        34.6600996038       22.2867442030        9.8420991029
  H        33.6292641494       23.5921248739       14.7537716896
  H        25.7705692428        8.5811053169       11.3793186505
  H        30.8961120893       22.6877184907        3.9076455717
  H        31.9036785115       24.5730404449        2.6222338957
  H        35.5408623411       24.1547443046        4.8806934523
  H        34.5112997812       22.2829938693        6.1755749536
  H        33.5951669784       23.5805435190        1.2027587300
  H        40.5828743621       17.0490271409        4.6615982515
  H        32.5127387358       14.1473848112        8.2467525241
  H        29.8533776811       12.4445505138        3.9889941343
  H        28.8179314419       10.5655999461        2.7118666373
  H        25.1067984689       11.2123652536        4.7860411691
  H        26.1587860266       13.0891602763        6.0641988765
  H        27.1435761459       11.6752599342        1.2353204073
  H        33.2968917615       14.2168309540        6.4376351054
  H        33.4031335920       14.3964651703        9.6055622289
  H        32.1075632945       18.5139875320        5.1291225369
  H        30.1931868181       14.1375759969        8.0776704976
  H        16.1181542116        2.9626520685       12.1294214111
  H        14.9523691281        4.8194588205       13.3221768274
  H        17.3649239806        7.6856159997       11.2101639576
  H        18.5142238300        5.8182996272       10.0104025517
  H        16.7527778753        5.7391284372       14.7712081805
  H        44.7493847015       32.1396432386       12.0478572527
  H        45.8409383796       30.3373970600       13.3801419327
  H        43.7838722324       27.3750665534       11.0247055241
  H        42.7016068378       29.1949170754        9.7002031749
  H        44.2048188645       29.3965238172       14.7656474909
  H        14.8493656333        8.5450482023       11.3631128691
  H        44.8153058233       32.2313030312        3.8493736768
  H        45.9166585969       30.4055703506        2.5658941334
  H        43.8857151877       27.4862857282        4.9970335676
  H        42.7699617337       29.3275071340        6.2563456519
  H        44.2409483932       29.4284675454        1.2250559108
  H        35.0194670947       26.6352181426        4.6335233185
  H        36.6054306674       35.1339800918        8.1804325243
  H        16.1436479957        3.0127653983        3.9038479833
  H        14.9740162504        4.8561335689        2.6880375821
  H        17.3958168177        7.7470956326        4.7549917354
  H        18.5427082428        5.8931215641        5.9828197493
  H        16.7644128065        5.7553523248        1.2189952143
  H        36.2792890576       34.4816652342        6.2735644887
  H        36.3814047034       34.2088475869        9.4993494341
  H        40.5812225038       33.2004933091        5.1551030071
  H        17.4706771262        1.9473086640        7.9740265447
  H        28.7430935323       18.8968870366       12.2234178032
  H        28.7678123121       18.7001432357        3.7290307553
  H        30.7792813303       15.3733760625        3.7485540838
  H        32.3780663264       16.3589828903       12.3048340576
  H        29.3488529909       19.0349356806       14.8450323122
  H        18.8540639099        0.8693659592       12.3345282222
  H        40.5287473312       35.2291916741        3.9525778504
  H        42.3208490261       34.4155736102        3.5933163222
  H        22.0862698555        0.6938341411       12.3504659510
  H        11.5984708164       18.7095253761       12.3791577076
  H        52.2655549956       18.4242420122        3.6762030916
  H        49.2542971833       16.4758291380        3.5843750680
  H        10.1508345404       15.7987724646       12.2920423729
  H        50.8491676479       17.6901880005        3.9515862823
  H        10.0461574752       17.3954363970       12.0510262235
  H        20.2151701079        0.0019151409       12.0417229132
  H        39.1839252180       36.1245715865        3.6866401077
 Ni        30.6859040225       17.6272622233        2.7522608633
 Ni        30.4411977536       17.5205881982        0.4988622480
 Ni        30.4331326162       17.4848227500       13.2396312709
  O        10.6499242685       14.3649826892        5.4857357109
  O        12.6131283432       14.6572993151        6.5839023639
  O        49.1475546695       16.8456061975        7.9899689694
  O        50.3220622981       20.8752799688        5.5747956928
  O        48.3490511051       20.5919317028        6.6677767123
  O        11.0516687459       17.0517718798        6.4999252451
  O        50.3254828649       20.8799383581       10.4054291061
  O        48.3481341358       20.5861812992        9.3260886101
  O        49.5434743283       18.2486344576       10.0673987547
  O        12.3581722689       18.6245057343        7.9992495590
  O        48.6929480544       14.1484727415        6.7514736482
  O         8.2097416521       14.2103290395        9.3224635223
  O        10.7351752864       14.5067058191       10.6644018266
  O        12.5716782072       14.5826596536        9.3286543414
  O        22.8441022787        2.0420488519        5.4876508070
  O        21.6035656397        3.5912247111        6.5905375633
  O        42.0580153567       34.1370568338        7.9791171266
  O        37.9811308646       33.1364113508        5.5721163659
  O        39.2167763487       31.5748032289        6.6651102419
  O        20.3082991258        1.0394961482        6.5018350835
  O        38.0241676394       33.1850390832       10.4155327551
  O        39.2178840953       31.5825928981        9.3275718935
  O        40.6520312160       33.7690321508       10.0600234434
  O        18.2555351104        1.3764117544        7.9967745248
  O        44.6224158347       35.1006275657        6.7586369428
  O        24.2055601442       -0.0001028105        9.3208531632
  O        22.7529081515        2.0560382169       10.5827669445
  O        21.6242858448        3.5953261462        9.3417373249
  O        27.4627302927       18.6815488826        5.4208126588
  O        26.6923682985       16.9286313625        6.6596295661
  O        30.6281674574       19.3481273019        7.9951773242
  O        33.5399866053       16.3257529972        5.6580346106
  O        34.2676260004       18.1790583413        6.7418555021
  O        29.5347012833       17.0080648924        6.5735031491
  O        33.5547031336       16.3419954484       10.4206272064
  O        34.2982685541       18.2378032466        9.4032101201
  O        31.6488690106       18.3216617035       10.0909893020
  O        30.2888101239       15.1037425400        8.0800145659
  O        28.5512702232       21.0247702141        6.8279083264
  O        28.5090850818       20.9521726059        9.3946321389
  O        27.4546810875       18.6783908440       10.6577958230
  O        26.6894735398       16.9293441695        9.4161367671
  O        13.1456891218       18.6941779503       10.5858889256
  O        13.9172994845       16.9158498203        9.4036685094
  O        50.5953468900       19.3513500246        8.0145776903
  O        47.6823834096       16.3272031841       10.4175693759
  O        46.9498320049       18.1755132155        9.3257625003
  O        11.0683541512       17.0160838725        9.4893469682
  O        47.6742707141       16.3356279785        5.6528411041
  O        46.9239723369       18.2356169463        6.6627946552
  O        49.5673216705       18.3119427047        5.9826334396
  O        10.3186259508       15.0999856010        7.9972013872
  O        52.6709061240       21.0282344025        9.2409567788
  O        12.1407899641       20.8914924472        6.6699904848
  O        13.1051829115       18.6137624026        5.3257888810
  O        13.9551789176       16.9860681091        6.6655151826
  O        29.9587137837       14.5070948310       10.7398072987
  O        28.0731497799       14.6565451861        9.4876738560
  O        32.0701060112       16.8521920651        8.0629325599
  O        30.9574532400       20.9508789069       10.3371410762
  O        32.9553094223       20.5913027470        9.3239788042
  O        29.5593997579       17.0690519787        9.5703452722
  O        30.8528191184       20.8741296815        5.5859661898
  O        32.8542072229       20.5846492256        6.6522467489
  O        31.6149655635       18.2367313708        5.9181398182
  O        28.2523691363       18.6349106559        8.0508578480
  O        32.4884015711       14.2128082036        9.3251267516
  O        32.4041945254       14.2133568649        6.8219292520
  O        29.8677645225       14.3690300090        5.4988488396
  O        27.9678175260       14.5818132165        6.7423380896
  O        17.8891741495        1.9665105261       10.6628648949
  O        18.9561162787        3.5271778071        9.4081108859
  O        39.1684263116       34.1386126431        7.9970753780
  O        43.2797290634       33.0607805254       10.3319094495
  O        42.0337645618       31.5073925084        9.2401724366
  O        20.3172799731        1.0361846940        9.4804164271
  O        43.2755857976       33.1851345622        5.5750083680
  O        42.0048825219       31.5849423585        6.5843177798
  O        40.5788221711       33.7751040610        5.9357903728
  O        22.3670490770        1.3842045735        7.9980181437
  O        36.6727444060       35.0997181970        9.2332197009
  O        16.4455982016        0.0641166768        6.6682625150
  O        17.9362997725        2.0432118500        5.3263573424
  O        18.9187258844        3.5931632457        6.6658651144
  O        29.7022121512       18.7583065271        4.0027190895
  O        29.6956370600       18.8992649412       12.0038043563
  O        31.1784498586       16.1954621883        4.0851581438
  O        31.4315828456       16.3460361738       12.0766175590
  O        29.7727861589       18.1623222463       14.8875870725
  O        39.4569619796       35.2438530975        4.0019800058
  O        19.1415801490        0.0044754935       11.9905415105
  O        41.9692434009       35.1727656113        4.0868504547
  O        21.6913884143       -0.0693654099       11.8964536862
  O        51.3659782756       18.6112807605        4.0028604310
  O        10.7512205886       18.7469382658       11.9044475945
  O        50.0790017187       16.4121799971        4.0912631617
  O         9.5243833097       16.4833517582       11.9911403483
 Zr         9.2956513406       16.0520154028        6.1824327113
 Zr        49.8359136311       16.0072081671        9.7466057111
 Zr        22.0738909780        0.0287396659        6.1892877778
 Zr        42.4610011271       35.1530171152        9.8008372651
 Zr        29.5648543256       19.0396123496        6.2173686718
 Zr        29.5709000578       19.1789365692        9.8233977564
 Zr        11.0362168656       19.0530866681        9.8252447021
 Zr        11.0410761251       19.1503894959        6.2446962141
 Zr        31.3225973375       16.0914023575        9.8543384888
 Zr        31.3490273482       15.9772184344        6.2518708257
 Zr        18.6013293798       -0.0019012915        9.7632922864
 Zr        18.5069581819       -0.0079456104        6.2135208717
 Zr        12.3005631728       16.3233372700        7.9907850024
 Zr        48.6155579969       18.8332836653        8.0086615445
 Zr        20.3146411961        2.4725356136        7.9908466913
 Zr        40.6434459497       32.6863986445        7.9772412484
 Zr        28.3170656041       16.3180603275        8.0787417070
 Zr        32.5997532153       18.8273210171        8.0219028421
  H        31.4259745424       16.8473772125        1.5437806812
