     562
 i =      105, E =     -4525.7473650320
  C        11.8585782232       14.0534026172        5.7415507963
  C        12.4559673113       12.8904197246        5.0232669305
  C        11.7042908055       12.1716502255        4.0814694188
  C        12.2805827268       11.1093895073        3.3891393551
  C        13.6210857788       10.7393542813        3.6169590051
  C        14.3542157339       11.4427488341        4.5905982315
  C        13.7813990625       12.5077478929        5.2821290869
  C        14.2605176658        9.6486506649        2.8435377659
  C        14.2555711837        9.6564600328        1.4218317129
  C        13.7423384781       10.7585396527        0.6679085551
  C        49.1265308058       21.2333748444        5.8797567859
  C        48.5496406757       22.4011913540        5.1526861914
  C        49.2996599619       23.0684853205        4.1716528451
  C        48.7327070210       24.1075688938        3.4384172979
  C        47.4021615925       24.5091972225        3.6670418680
  C        46.6712232195       23.8603540637        4.6805900896
  C        47.2336847691       22.8154789156        5.4099750044
  C        46.7719520725       25.5868773297        2.8697440237
  C        46.7609927111       25.5572425502        1.4479856286
  C        47.2609194455       24.4421374961        0.7045042490
  C        14.8593874818        8.5700602377        0.7085510536
  C        14.8914338212        8.5967568137        3.5201594845
  C        49.1128461733       21.2034215649       10.1452997337
  C        48.5274412725       22.3647468053       10.8723951541
  C        49.2666035706       23.0252933637       11.8654786192
  C        48.6902866666       24.0598263815       12.5969569331
  C        47.3599396737       24.4567521220       12.3585941785
  C        46.6396244672       23.8120459242       11.3348670988
  C        47.2131615711       22.7761585912       10.6030473358
  C        46.7215143581       25.5317008622       13.1496359879
  C        46.7332424222       25.5280343208       14.5713386784
  C        47.2486511081       24.4288211787       15.3277420930
  C        40.6156328936       17.0677674371       15.3183918311
  C        40.6344506805       17.1124381040       12.5080097779
  C        11.8827245773       14.0863414754       10.2854931467
  C        12.4716838875       12.9102971538       10.9895285439
  C        11.7140933371       12.1774682523       11.9158841235
  C        12.2804072710       11.0948785143       12.5842951011
  C        13.6190486045       10.7206185266       12.3522494393
  C        14.3570326925       11.4357102673       11.3910857730
  C        13.7918676235       12.5170049995       10.7183897324
  C        14.2525007359        9.6238452527       13.1227292715
  C        14.2513106905        9.6438943324       14.5445744417
  C        13.7415939304       10.7529125177       15.2916519826
  C        22.5031816663        3.2423136445        5.7468785721
  C        23.2001080750        4.3452461878        5.0299168381
  C        24.1978947133        4.0629402946        4.0856723699
  C        24.8149534877        5.1005895379        3.3928541503
  C        24.4477076407        6.4406743521        3.6246298752
  C        23.4732814109        6.7146791824        4.6012714599
  C        22.8526716996        5.6790334017        5.2934641527
  C        25.0558369389        7.5460235463        2.8526054692
  C        25.0554568103        7.5349568916        1.4318327149
  C        24.3688321149        6.5321200488        0.6769055322
  C        38.3006206542       31.9269575318        5.8484131281
  C        37.5655663437       30.8381035305        5.1395074804
  C        36.6028855802       31.1453873541        4.1653285849
  C        35.9767994428       30.1283805203        3.4492276052
  C        36.2970621154       28.7765892439        3.6839895654
  C        37.2308988061       28.4767362571        4.6941523993
  C        37.8611226154       29.4927431831        5.4094580610
  C        35.6846707892       27.6881236386        2.8863075982
  C        35.7155720755       27.7029371725        1.4641346702
  C        36.4254120309       28.7023994883        0.7267398711
  C        25.6896033029        8.6045651939        0.7217904158
  C        25.6347963739        8.6243194316        3.5323064945
  C        38.3271211618       31.9604421720       10.1570864043
  C        37.6021435276       30.8872874337       10.8987988929
  C        36.6707062848       31.1972828247       11.9019426009
  C        36.0546328228       30.1803929036       12.6294422859
  C        36.3544966007       28.8260961284       12.3787824813
  C        37.2644106180       28.5261363555       11.3460896216
  C        37.8825778801       29.5396924039       10.6196382151
  C        35.7392200965       27.7285985196       13.1622855880
  C        35.7432747693       27.7236334240       14.5850741474
  C        36.4378193306       28.7128941395       15.3498575331
  C        46.1352658470       26.6206937291       15.2814657641
  C        46.0876039282       26.5800797123       12.4735789036
  C        22.4674927905        3.2540491758       10.2505183117
  C        23.1787702287        4.3599838911       10.9585358476
  C        24.1905293173        4.0687541700       11.8872986344
  C        24.8317756082        5.0962329036       12.5743316882
  C        24.4802579945        6.4429319545       12.3550936239
  C        23.4944036215        6.7275896857       11.3918571007
  C        22.8491449442        5.7004256988       10.7042929645
  C        25.1112063637        7.5367934287       13.1339817774
  C        25.0842642310        7.5295306327       14.5558959768
  C        24.3797910401        6.5314764586       15.3005712902
  C        26.5639140088       17.8198084948        5.7585036725
  C        25.2587345193       17.8767668439        5.0410357317
  C        25.0030401686       18.8851343968        4.0987492349
  C        23.7918152078       18.9133497678        3.4130937670
  C        22.8051935590       17.9352016575        3.6473787993
  C        23.0553643401       16.9510898665        4.6218029138
  C        24.2674172807       16.9189690793        5.3078093750
  C        21.5397702995       17.9272614131        2.8763825511
  C        21.5504122728       17.9248555399        1.4545743000
  C        22.7615003941       17.8135475056        0.7010410468
  C        34.4116006656       17.2105519689        5.9098456299
  C        35.7056687683       17.1374156955        5.1710754796
  C        35.8979557364       16.1680249737        4.1741387410
  C        37.0822226396       16.1367761262        3.4421689677
  C        38.1054842814       17.0748410981        3.6832345979
  C        37.9148511191       18.0235626818        4.7066674549
  C        36.7298731331       18.0590648330        5.4380765577
  C        39.3604964257       17.0749628456        2.8954496627
  C        39.3567767147       17.0818816152        1.4726612598
  C        38.1498122257       17.1948211823        0.7130637230
  C        20.3078731428       17.9499933305        0.7409367167
  C        20.3134440822       17.9193228244        3.5530979128
  C        34.4449212521       17.2430594899       10.1819998318
  C        35.7458454607       17.1409529451       10.9050960958
  C        35.9669672676       16.1369313663       11.8604287052
  C        37.1549093909       16.1067477305       12.5871803205
  C        38.1542966241       17.0767490200       12.3762333681
  C        37.9418167618       18.0530600878       11.3846181453
  C        36.7520438226       18.0899596671       10.6630378462
  C        39.4028215768       17.0875104891       13.1724865848
  C        39.3784924059       17.0868740031       14.5940850648
  C        38.1600878766       17.1938476730       15.3360778845
  C        35.1065963223       26.6474224030       15.2888642016
  C        35.1486369688       26.6575675521       12.4790168620
  C        26.5678634776       17.8253811305       10.3283242121
  C        25.2550421451       17.8817756270       11.0295518642
  C        24.9814728496       18.9101070950       11.9439218835
  C        23.7625886042       18.9426984160       12.6146109770
  C        22.7894843574       17.9493624182       12.3901666393
  C        23.0560786871       16.9464205991       11.4409566021
  C        24.2762822040       16.9098764857       10.7704871768
  C        21.5238485752       17.9389478657       13.1581395529
  C        21.5417012910       17.9316640623       14.5788937279
  C        22.7574963719       17.8176565050       15.3247640154
  C        14.0452767164       17.8332250485       10.2823300318
  C        15.3526646146       17.9012001624       10.9963794352
  C        15.6122291135       18.9191428423       11.9267056985
  C        16.8236439455       18.9488910815       12.6133695514
  C        17.8055603774       17.9632624327       12.3903023787
  C        17.5522241536       16.9711002186       11.4251575770
  C        16.3404638592       16.9371659480       10.7395409443
  C        19.0707640956       17.9493348825       13.1615292735
  C        19.0607245547       17.9447130653       14.5828614562
  C        17.8483675782       17.8445488069       15.3354136269
  C        46.8026568661       17.2179083779       10.1594084192
  C        45.5112761225       17.1512865965       10.9051088972
  C        45.3075030957       16.1693952299       11.8873928890
  C        44.1249261986       16.1428224574       12.6224090160
  C        43.1139540719       17.0981748668       12.3987205138
  C        43.3154448573       18.0604535422       11.3903286921
  C        44.4988359862       18.0906851075       10.6558126685
  C        41.8590280187       17.0986403011       13.1870373133
  C        41.8629099334       17.0902417048       14.6097205009
  C        43.0705985806       17.1880068674       15.3701671490
  C        20.3031826810       17.9524644051       15.2970464247
  C        20.2966852428       17.9271467770       12.4845736789
  C        46.7818183351       17.2303419934        5.8882772567
  C        45.4766901469       17.1189741613        5.1735613859
  C        45.2590286394       16.1151236134        4.2171927737
  C        44.0694127601       16.0792701751        3.4931307414
  C        43.0653553230       17.0439338595        3.7070948846
  C        43.2737035654       18.0180844828        4.7017145461
  C        44.4646912491       18.0602949450        5.4210027575
  C        41.8170880325       17.0562603055        2.9100015671
  C        41.8414542565       17.0673144169        1.4883717324
  C        43.0602962027       17.1744698790        0.7470535357
  C        46.1530219557       26.6371324206        0.7262211714
  C        46.1620357727       26.6560210355        3.5358596550
  C        14.0389785964       17.8272583633        5.7053278671
  C        15.3511017640       17.8941359157        5.0021133896
  C        15.6200727140       18.9161281506        4.0798796400
  C        16.8426077144       18.9519810979        3.4145365460
  C        17.8202849622       17.9645922205        3.6471916691
  C        17.5566941013       16.9680503711        4.6039412573
  C        16.3364663235       16.9320453332        5.2733571194
  C        19.0860572090       17.9467001108        2.8796405223
  C        19.0688599844       17.9417320690        1.4586866180
  C        17.8524297326       17.8428775425        0.7115730479
  C        28.7975272931       14.1173015476       10.3990484886
  C        28.2079595944       12.9313426072       11.0792632147
  C        28.9357736703       12.2101597270       12.0368891199
  C        28.3519986165       11.1219310850       12.6806627503
  C        27.0270908152       10.7355190723       12.3935177109
  C        26.3235046255       11.4374806567       11.3983098990
  C        26.9052351257       12.5229384235       10.7503722729
  C        26.3626135563        9.6494222119       13.1484961198
  C        26.3304768654        9.6761460573       14.5690970840
  C        26.8214274310       10.7901299085       15.3215212557
  C        32.1782867267       21.2370871882       10.1118317556
  C        32.7611613960       22.4024161945       10.8409902226
  C        32.0063794639       23.0751562215       11.8148735620
  C        32.5706216641       24.1138964565       12.5505632489
  C        33.9047788973       24.5110111594       12.3335670346
  C        34.6415498791       23.8560172872       11.3279975002
  C        34.0810214778       22.8112748922       10.5953387818
  C        34.5283585913       25.5891730851       13.1373631258
  C        34.5142949518       25.5638735976       14.5597592623
  C        34.0024586321       24.4508543072       15.2987163217
  C        25.7100896121        8.5978337253       15.2780890718
  C        25.7357436706        8.5981623151       12.4665111096
  C        32.0720997137       21.1915892611        5.8424231224
  C        32.6496772302       22.3602558334        5.1129995074
  C        31.9197552541       23.0127256051        4.1071348266
  C        32.4942840084       24.0565029749        3.3845778983
  C        33.8144454212       24.4760411688        3.6439220093
  C        34.5246492619       23.8385210909        4.6797700392
  C        33.9540872801       22.7928946746        5.4009841158
  C        34.4571842936       25.5588001411        2.8617208145
  C        34.4781469631       25.5484951339        1.4388854404
  C        33.9845037599       24.4437843836        0.6756276078
  C        40.6041401353       17.0604708531        0.7639606111
  C        40.5852937360       17.0776819476        3.5743010401
  C        28.6779064559       14.0345575434        5.8238959868
  C        28.0635710957       12.8945666914        5.0852876877
  C        28.8148926975       12.1762545617        4.1421357409
  C        28.2345468733       11.1291789211        3.4328523753
  C        26.8888537346       10.7717487265        3.6461533555
  C        26.1533382465       11.4746174692        4.6183627729
  C        26.7313288734       12.5257051464        5.3273726652
  C        26.2574030598        9.6844489361        2.8635898099
  C        26.2784343271        9.6941170602        1.4427350212
  C        26.7955587521       10.7993980016        0.6971331859
  C        18.1352748717        3.1808966369       10.3172152576
  C        17.4056409057        4.2779953735       11.0157219857
  C        16.3897645555        3.9993960872       11.9429929133
  C        15.7417593988        5.0392203197       12.6064612092
  C        16.0935650469        6.3829968161       12.3669780170
  C        17.0831311583        6.6527660026       11.4034811442
  C        17.7325098946        5.6155750275       10.7384609643
  C        15.4690137720        7.4905657174       13.1300361193
  C        15.4843609078        7.4899329634       14.5517493863
  C        16.1860902392        6.4964159948       15.3048787213
  C        42.9457465856       31.8594982794       10.0728250221
  C        43.6461497586       30.7717756425       10.8167272432
  C        44.5916991691       31.0931110807       11.8027700786
  C        45.1973882648       30.0875681558       12.5504569383
  C        44.8709062351       28.7345185609       12.3356281033
  C        43.9450830798       28.4201681074       11.3224206885
  C        43.3362824545       29.4253055152       10.5743593442
  C        45.4884316847       27.6552167675       13.1388480814
  C        45.4925994063       27.6808435622       14.5605408030
  C        44.8055797243       28.6889500194       15.3071461570
  C        14.8554126579        8.5624320148       15.2641170514
  C        14.8736726940        8.5622803850       12.4514392716
  C        42.9464075697       31.9616181716        5.8090035881
  C        43.6916142212       30.8854330985        5.0955287463
  C        44.6563046943       31.1913295672        4.1233299695
  C        45.2777662383       30.1717322376        3.4055580378
  C        44.9537954133       28.8214440977        3.6430538985
  C        44.0201720295       28.5237813989        4.6536966648
  C        43.3919797746       29.5405600504        5.3659189250
  C        45.5627864902       27.7240271634        2.8577924021
  C        45.5330958654       27.7173216247        1.4364979388
  C        44.8268443790       28.7075947314        0.6835391991
  C        35.0903890174       26.6383146463        0.7348381056
  C        35.0723048092       26.6156630741        3.5454793067
  C        18.1484356371        3.2468064018        5.7065974319
  C        17.4298601044        4.3435939633        4.9971285760
  C        16.4145566287        4.0522938549        4.0736885781
  C        15.7661611593        5.0829049005        3.3983347583
  C        16.1208600777        6.4281475691        3.6209354214
  C        17.1124134786        6.7115670213        4.5779979942
  C        17.7601276091        5.6826738473        5.2577590974
  C        15.4901844553        7.5237951979        2.8485522108
  C        15.4958198530        7.5070664687        1.4274154552
  C        16.1925186940        6.5053443066        0.6806897300
  H        10.6722139057       12.4659143151        3.9043711062
  H        11.6942718834       10.5510097903        2.6625418126
  H        15.3911762737       11.1679635382        4.7724516417
  H        14.3508302082       13.0707182897        6.0177891945
  H        13.3754897917       11.6307525714        1.2011811479
  H        50.3223680970       22.7484518161        3.9869155562
  H        49.3191652226       24.6228333850        2.6808185889
  H        45.6417362684       24.1611452319        4.8637602552
  H        46.6626697305       22.2902405648        6.1720705444
  H        47.6294416977       23.5757539209        1.2461912630
  H        14.8719748073        8.5880662108        4.6084700698
  H        50.2865898217       22.7023183085       12.0604842548
  H        49.2686320055       24.5751822464       13.3605616016
  H        45.6103064195       24.1094847624       11.1456459179
  H        46.6524016229       22.2541734447        9.8313165873
  H        47.6074177975       23.5516812903       14.7968729329
  H        40.6410506820       17.0894543129       11.4198879360
  H        48.6870305101       14.0950816498        7.7999856622
  H        10.6807648718       12.4669298322       12.0934635050
  H        11.6885451356       10.5247454260       13.2971420066
  H        15.3923108054       11.1573883014       11.2049357762
  H        14.3642754283       13.0860089098        9.9896279807
  H        13.3747817835       11.6215398992       14.7530269947
  H        47.9300917299       14.2181934264        9.7108164895
  H        47.7799199564       14.3738054145        6.4952867644
  H        49.0825771109       18.5522358506       10.8671209860
  H        10.4157476968       14.1343207803        7.9987532624
  H        24.4688584803        3.0246836084        3.9078057814
  H        25.5922640662        4.8840570432        2.6633036814
  H        23.1826634235        7.7472084247        4.7833474606
  H        22.0802154168        5.8786205026        6.0320316882
  H        23.8009091651        5.7748630525        1.2095476099
  H        36.3693461576       32.1895828765        3.9711964655
  H        35.2304253133       30.3728457821        2.6965505594
  H        37.4875662619       27.4365392904        4.8840358994
  H        38.6066862699       29.2664334904        6.1681522579
  H        36.9922313612       29.4508016563        1.2729134485
  H        25.6490050544        8.6102212829        4.6205715793
  H        36.4495343196       32.2419083699       12.1091132803
  H        35.3270305883       30.4286197077       13.3990243199
  H        37.5096303909       27.4854522237       11.1444437307
  H        38.6066545398       29.3108233567        9.8414098084
  H        37.0152117836       29.4689309184       14.8255779853
  H        46.1090389856       26.5874962072       11.3855441660
  H        44.6682863810       35.1162049103        7.8142060331
  H        24.4628684096        3.0289536454       12.0533090245
  H        25.6178105187        4.8650063642       13.2900624579
  H        23.2132595452        7.7636192196       11.2141975773
  H        22.0708997281        5.9159974627        9.9758597995
  H        23.8197553665        5.7740960010       14.7599694026
  H        44.9537415767       34.3899104563        9.6947206612
  H        44.9021045572       34.2069488831        6.4907192650
  H        40.6654543355       33.2084308018       10.8528673062
  H        23.1500550847        1.9578305900        8.0022215531
  H        25.7631566031       19.6420347204        3.9202198722
  H        23.5944286742       19.6998488529        2.6879701392
  H        22.3018318562       16.1888195256        4.8089615445
  H        24.4757490870       16.1467963990        6.0446525183
  H        23.7000847418       17.6912283724        1.2337512548
  H        35.1011046903       15.4541175638        3.9784039357
  H        37.2283239648       15.3766281122        2.6779021011
  H        38.6950681596       18.7573113259        4.8982917844
  H        36.5687452572       18.8075165438        6.2104902616
  H        37.2084259340       17.3151341211        1.2415877621
  H        20.3146607676       17.9450884073        4.6413208783
  H        35.1945711141       15.3903395008       12.0308095784
  H        37.3216287328       15.3261672720       13.3263206577
  H        38.7065672930       18.8081723926       11.2148098521
  H        36.5684394316       18.8622388171        9.9199029892
  H        37.2264606729       17.3116482855       14.7934971311
  H        35.1261809981       26.6817962801       11.3911109083
  H        28.5050861712       21.0753764919        7.8808656006
  H        25.7345308661       19.6768451103       12.1102428328
  H        23.5488934586       19.7411771382       13.3218480448
  H        22.3108383317       16.1736376721       11.2642343238
  H        24.5006377219       16.1236812815       10.0536672970
  H        23.6928755316       17.6996860647       14.7855307426
  H        29.0057910812       21.7128313495        9.7395177635
  H        29.1922439050       21.7031379500        6.5476655387
  H        32.0974147571       18.6017209389       10.9011841160
  H        27.3687870518       19.0281875097        8.0756245531
  H        14.8536860974       19.6798803946       12.0966260803
  H        17.0239994947       19.7416282555       13.3309599379
  H        18.3028439713       16.2040303042       11.2461564513
  H        16.1292409174       16.1586175804       10.0104426402
  H        16.9089547017       17.7355023951       14.8014446606
  H        46.0931022258       15.4394754480       12.0681366985
  H        43.9695759846       15.3725229049       13.3746378626
  H        42.5446285353       18.8074055985       11.2119976089
  H        44.6682218771       18.8482396339        9.8940866381
  H        44.0123816178       17.3069965718       14.8421049329
  H        20.2958601008       17.9530362310       11.3963567465
  H        46.0381255826       15.3766492371        4.0421847861
  H        43.9057342761       15.2995250635        2.7524088653
  H        42.5050449489       18.7684558729        4.8748246679
  H        44.6443479121       18.8318988547        6.1657221353
  H        43.9943965251       17.2818097123        1.2908635568
  H        46.1988600623       26.6825848438        4.6233054069
  H        52.7411922599       21.0626451656        8.1946199479
  H        14.8620159036       19.6759822535        3.9036061732
  H        17.0543856005       19.7479635861        2.7039004919
  H        18.3048170104       16.1996349100        4.7873925257
  H        16.1153118468       16.1525915460        5.9984049848
  H        16.9160087260       17.7324581439        1.2502113045
  H        52.3224345356       21.6736565460        6.2946947287
  H        52.0134953050       21.7026175543        9.4953950295
  H        49.0667854090       18.6075425724        5.2043118960
  H        13.2470553418       19.0164159998        7.9753189487
  H        29.9530520175       12.5209408788       12.2647327290
  H        28.9166158380       10.5606476634       13.4219556699
  H        25.2999582967       11.1480140766       11.1695876716
  H        26.3591966822       13.0861270780        9.9977548792
  H        27.1923484875       11.6597953647       14.7875292864
  H        30.9807054148       22.7591803666       11.9903805894
  H        31.9789327433       24.6333946249       13.3011734957
  H        35.6740728561       24.1514561666       11.1530894343
  H        34.6575696813       22.2824596142        9.8397952846
  H        33.6494933322       23.5802009138       14.7533887990
  H        25.7777937945        8.5803706612       11.3788748346
  H        30.9065963034       22.6786449343        3.8950576112
  H        31.9198359917       24.5621207270        2.6114720460
  H        35.5462853437       24.1493609683        4.8883611871
  H        34.5109537277       22.2799622730        6.1815449656
  H        33.6180800920       23.5671902169        1.2022963406
  H        40.5786243120       17.0449418188        4.6621696682
  H        32.5091328598       14.1519229967        8.2541885629
  H        29.8558937573       12.4482126361        3.9847158063
  H        28.8220121296       10.5690396830        2.7086540874
  H        25.1120444659       11.2083338086        4.7877009570
  H        26.1617770041       13.0867602936        6.0645149338
  H        27.1463384108       11.6755065888        1.2349310242
  H        33.2954408971       14.2238986933        6.4375593121
  H        33.4034142841       14.3965637413        9.6054671185
  H        32.0661628687       18.4931754795        5.0957219012
  H        30.1979796791       14.1411399144        8.0735581870
  H        16.1178598623        2.9628288630       12.1292658057
  H        14.9521964734        4.8196725312       13.3219464869
  H        17.3655670571        7.6856874706       11.2106202011
  H        18.5147881390        5.8184089700       10.0109215857
  H        16.7526618594        5.7391130761       14.7713399626
  H        44.8280057742       32.1401967654       11.9769121374
  H        45.9372794259       30.3413285408       13.3063758157
  H        43.6823798951       27.3780981753       11.1523282734
  H        42.5996700019       29.1899928498        9.8096813949
  H        44.2303168936       29.4367735831       14.7688219954
  H        14.8499385310        8.5454975279       11.3632177516
  H        44.8999896539       32.2340027610        3.9320108700
  H        46.0247669911       30.4129432619        2.6524082273
  H        43.7630501724       27.4840661794        4.8451203683
  H        42.6453814536       29.3178074139        6.1242801477
  H        44.2684192564       29.4705420674        1.2181260986
  H        35.0290520807       26.6285437954        4.6329620507
  H        36.6052828799       35.1339001190        8.1806671557
  H        16.1434743874        3.0127029972        3.9040399509
  H        14.9737331576        4.8560282149        2.6883755420
  H        17.3960115815        7.7470311439        4.7547600191
  H        18.5430554868        5.8931605518        5.9824587074
  H        16.7641444844        5.7552278781        1.2190922073
  H        36.2789519918       34.4819632783        6.2732852336
  H        36.3809485392       34.2090687245        9.4997014150
  H        40.5798371100       33.2024335542        5.1538487704
  H        17.4708234960        1.9472497773        7.9740140475
  H        28.7792482848       18.7709212536       12.2805604010
  H        28.7454524947       18.6367881289        3.7932997440
  H        30.6319721818       15.3708885063        3.7438689165
  H        32.3803256257       16.5254610375       12.2955795240
  H        29.5466090495       19.2115212607       14.8193635380
  H        18.8540102311        0.8691839849       12.3351441092
  H        40.5284592811       35.2291009892        3.9521684127
  H        42.3239218824       34.4192105720        3.5902470863
  H        22.0873570747        0.6921271237       12.3517804933
  H        11.5964803268       18.7127817991       12.3826345526
  H        52.2648514851       18.4313058509        3.6776887064
  H        49.2552964885       16.4764068765        3.5840031168
  H        10.1503141533       15.7983168881       12.2925593508
  H        50.8499658168       17.6926616825        3.9540030582
  H        10.0459186043       17.3947808451       12.0519256723
  H        20.2153639972        0.0021148809       12.0418942473
  H        39.1838018753       36.1244500745        3.6864963051
 Ni        30.5217622679       17.5278616288        2.7462570663
 Ni        30.1845039561       17.3751566073        0.2545501174
 Ni        30.4818751482       17.5908723895       13.3223104717
  O        10.6498332226       14.3652135961        5.4857890621
  O        12.6130757027       14.6573938646        6.5838416048
  O        49.1475292206       16.8459718005        7.9896676463
  O        50.3500519049       20.9363359481        5.6482490581
  O        48.3484218452       20.5932217725        6.6659690274
  O        11.0508391930       17.0540756980        6.5005792457
  O        50.3206363471       20.8817188972       10.4068795852
  O        48.3465562762       20.5866418796        9.3270053940
  O        49.5431747616       18.2483876855       10.0682926993
  O        12.3586711222       18.6246511262        7.9996800205
  O        48.6931541025       14.1486812232        6.7512612210
  O         8.2098255340       14.2104687337        9.3225468024
  O        10.7351689044       14.5067665264       10.6643441001
  O        12.5716974597       14.5826821083        9.3285786603
  O        22.8440871485        2.0420803231        5.4877709186
  O        21.6037878895        3.5913777032        6.5903836992
  O        42.0579608467       34.1371087231        7.9791265229
  O        37.9812921093       33.1356609707        5.5720323196
  O        39.2173260973       31.5748752693        6.6654771895
  O        20.3083619713        1.0396979006        6.5019317880
  O        38.0240882616       33.1846533900       10.4156708697
  O        39.2181430302       31.5827685752        9.3274372371
  O        40.6521517267       33.7690733416       10.0602151935
  O        18.2556481649        1.3762840328        7.9967849463
  O        44.6222234427       35.1005601494        6.7588866785
  O        24.2055042988       -0.0001617125        9.3207408023
  O        22.7529494942        2.0560379874       10.5827573160
  O        21.6245291596        3.5954859311        9.3420862774
  O        27.4623739721       18.6808961861        5.4223425729
  O        26.6924714968       16.9281819541        6.6608581979
  O        30.6267750415       19.3472790936        7.9980271581
  O        33.5306136220       16.3244843730        5.6534171013
  O        34.2667562527       18.1751696860        6.7405553139
  O        29.5332574268       17.0072126774        6.5733182984
  O        33.5544196919       16.3429455566       10.4203501789
  O        34.2980144609       18.2379846126        9.4018217183
  O        31.6501187877       18.3261943750       10.0844662294
  O        30.2898021343       15.1077473171        8.0797555869
  O        28.5511320277       21.0246094031        6.8289239945
  O        28.5113881030       20.9487705413        9.3976809801
  O        27.4620494954       18.6777418417       10.6607709820
  O        26.6903650469       16.9304403292        9.4178489125
  O        13.1462180441       18.6940358197       10.5858898374
  O        13.9176870927       16.9159463984        9.4038157345
  O        50.5956000242       19.3502390167        8.0205756378
  O        47.6822921785       16.3273459870       10.4175776180
  O        46.9498845061       18.1756075790        9.3258084130
  O        11.0687464633       17.0160020373        9.4895507874
  O        47.6740340470       16.3359797841        5.6526999857
  O        46.9241253351       18.2358678366        6.6627988003
  O        49.5685230444       18.3177458640        5.9822523490
  O        10.3185623980       15.1001916706        7.9971086079
  O        52.6706884741       21.0280328804        9.2418096730
  O        12.1468182770       20.8914031806        6.6733127240
  O        13.1046202737       18.6142264459        5.3262519405
  O        13.9551433146       16.9863551165        6.6654188801
  O        29.9634005410       14.5108960889       10.7420763065
  O        28.0768478917       14.6563460529        9.4895405254
  O        32.0663160200       16.8513079867        8.0633876534
  O        30.9561799449       20.9470581589       10.3416124253
  O        32.9540278027       20.5918560024        9.3241355510
  O        29.5598447496       17.0699514823        9.5709835919
  O        30.8533536133       20.8731388859        5.5861079912
  O        32.8538570456       20.5834007676        6.6536468857
  O        31.6123948641       18.2341585349        5.9151542683
  O        28.2555625273       18.6322160942        8.0580510104
  O        32.4875553494       14.2147964768        9.3276052752
  O        32.4014341657       14.2164902281        6.8188557048
  O        29.8693581220       14.3719789011        5.4989977805
  O        27.9685662127       14.5814111322        6.7419061932
  O        17.8891658196        1.9665200402       10.6628380617
  O        18.9561164233        3.5271697327        9.4081106514
  O        39.1684676771       34.1385688772        7.9971977647
  O        43.2801995299       33.0588500111       10.3317041876
  O        42.0343402167       31.5064288329        9.2415982885
  O        20.3173254553        1.0361927841        9.4802820605
  O        43.2761406267       33.1825259361        5.5749047915
  O        42.0052304954       31.5841076387        6.5830225712
  O        40.5790258170       33.7751178157        5.9359758913
  O        22.3671175847        1.3843349703        7.9980756683
  O        36.6727937228       35.0997049661        9.2333154472
  O        16.4456763958        0.0640484097        6.6682168351
  O        17.9363604530        2.0431369182        5.3264084951
  O        18.9187765198        3.5931088068        6.6658898991
  O        29.6936953655       18.7542009116        4.0041130478
  O        29.7308469116       18.8372002123       12.0612207546
  O        31.0878073404       16.1930432911        4.0057542838
  O        31.4298533774       16.4843422326       12.0836622948
  O        29.5539247061       18.2384927178       14.7639533194
  O        39.4569797871       35.2438159061        4.0019999629
  O        19.1417563220        0.0046169948       11.9905238490
  O        41.9695723263       35.1728973710        4.0871793620
  O        21.6912805229       -0.0694705265       11.8961358952
  O        51.3648341054       18.6143601322        4.0052796422
  O        10.7507377212       18.7472226860       11.9050222802
  O        50.0794885932       16.4127371631        4.0917287314
  O         9.5243074167       16.4831366847       11.9912189238
 Zr         9.2966480436       16.0529174847        6.1821563516
 Zr        49.8361491119       16.0069145021        9.7466400747
 Zr        22.0733652037        0.0297505827        6.1893683873
 Zr        42.4609606534       35.1534717901        9.8011489365
 Zr        29.5654360460       19.0424272393        6.2178787020
 Zr        29.5760090145       19.1730391808        9.8311394442
 Zr        11.0372971907       19.0524224446        9.8277613370
 Zr        11.0433359188       19.1552096462        6.2511907367
 Zr        31.3221895350       16.1008193155        9.8782229309
 Zr        31.3452828191       15.9836540417        6.2555280105
 Zr        18.6011767745       -0.0015724045        9.7636653899
 Zr        18.5067210533       -0.0078224136        6.2135792188
 Zr        12.3009632782       16.3231862102        7.9905494963
 Zr        48.6157736156       18.8328678450        8.0100551430
 Zr        20.3148159494        2.4733524705        7.9911093149
 Zr        40.6430687361       32.6869420802        7.9781705725
 Zr        28.3172641001       16.3170901334        8.0813713444
 Zr        32.6010599593       18.8272468143        8.0214615118
  H        31.2388019641       16.9780451392        1.4272481489
