     562
 i =      287, E =     -4525.7733669534
  C        11.8585826253       14.0533924761        5.7415575666
  C        12.4559417246       12.8903648811        5.0233556440
  C        11.7043061487       12.1717967202        4.0813642690
  C        12.2805860855       11.1095593287        3.3889942657
  C        13.6210258123       10.7393506253        3.6169332691
  C        14.3540615502       11.4425068484        4.5908242265
  C        13.7812813806       12.5074903810        5.2824082585
  C        14.2604422163        9.6486349633        2.8435228558
  C        14.2555119869        9.6564769202        1.4218131573
  C        13.7423114183       10.7585548543        0.6678642889
  C        49.1265184019       21.2334014315        5.8797728928
  C        48.5496933937       22.4012380864        5.1527354967
  C        49.2996703972       23.0684992037        4.1716425308
  C        48.7327099676       24.1075707535        3.4384032304
  C        47.4021732861       24.5092100121        3.6670825084
  C        46.6712743089       23.8604427515        4.6807106691
  C        47.2337614473       22.8155800350        5.4100879998
  C        46.7719840977       25.5868787067        2.8697609375
  C        46.7610162293       25.5572424269        1.4480028252
  C        47.2609447909       24.4421474943        0.7045099715
  C        14.8593202002        8.5700667989        0.7085383597
  C        14.8913721195        8.5967388983        3.5201361362
  C        49.1128838084       21.2034896148       10.1453097279
  C        48.5275125927       22.3648485228       10.8723367985
  C        49.2666499433       23.0252776220       11.8655236188
  C        48.6903156838       24.0597929782       12.5970087940
  C        47.3599852643       24.4567708611       12.3586165111
  C        46.6397230475       23.8121629585       11.3347859396
  C        47.2132463410       22.7762911296       10.6029397641
  C        46.7215696764       25.5317374410       13.1496419527
  C        46.7332911382       25.5280653793       14.5713475779
  C        47.2486581324       24.4288275826       15.3277461731
  C        40.6168916211       17.0675780186       15.3185652821
  C        40.6340329132       17.1169351333       12.5082852270
  C        11.8827333240       14.0863200128       10.2854361351
  C        12.4716673882       12.9102350586       10.9894031650
  C        11.7141334531       12.1776666142       11.9160175570
  C        12.2803844145       11.0950417396       12.5844195379
  C        13.6189268081       10.7205284860       12.3521949647
  C        14.3567950167       11.4353080863       11.3907022083
  C        13.7917098007       12.5166411212       10.7180041952
  C        14.2523657733        9.6237645566       13.1226774944
  C        14.2512365691        9.6438749781       14.5445219072
  C        13.7415586832       10.7529065669       15.2916051248
  C        22.5032684842        3.2421504637        5.7470746092
  C        23.2005673086        4.3447786620        5.0302564385
  C        24.1983638577        4.0618365475        4.0862315319
  C        24.8156194846        5.0990986097        3.3931293539
  C        24.4484987687        6.4392681377        3.6244835962
  C        23.4742059140        6.7139277820        4.6010271982
  C        22.8533431092        5.6786530340        5.2934970641
  C        25.0570979995        7.5439317208        2.8520858035
  C        25.0569378600        7.5321951877        1.4314520571
  C        24.3682204925        6.5301427074        0.6774626229
  C        38.3001133615       31.9273493605        5.8487100468
  C        37.5633494248       30.8395215692        5.1402240798
  C        36.5993937421       31.1488626458        4.1679253032
  C        35.9707834771       30.1333447646        3.4520791398
  C        36.2899965794       28.7810137176        3.6848979763
  C        37.2252255694       28.4790840260        4.6931721129
  C        37.8578385913       29.4936273246        5.4084969497
  C        35.6751155314       27.6940997711        2.8870937853
  C        35.7049863220       27.7095778760        1.4649007809
  C        36.4151121753       28.7089394722        0.7276491497
  C        25.6932802249        8.6002511250        0.7209123321
  C        25.6362226755        8.6223486381        3.5311232535
  C        38.3269822139       31.9605853099       10.1571578131
  C        37.6012627823       30.8881659240       10.8991174018
  C        36.6677166654       31.1994061637       11.8999629970
  C        36.0501105243       30.1835235319       12.6275277480
  C        36.3507644527       28.8289173961       12.3795118093
  C        37.2631029935       28.5276302436       11.3493374196
  C        37.8826507155       29.5402217727       10.6226912122
  C        35.7336438585       27.7324634614       13.1630320106
  C        35.7348619823       27.7291209575       14.5858085444
  C        36.4284181623       28.7189281233       15.3507835395
  C        46.1352752623       26.6207081028       15.2814680469
  C        46.0876233305       26.5800970381       12.4735800472
  C        22.4665476701        3.2536643728       10.2503455435
  C        23.1763421937        4.3592772871       10.9591221655
  C        24.1884528663        4.0674531662       11.8871703255
  C        24.8289545929        5.0946964976       12.5748215254
  C        24.4759158109        6.4410068715       12.3564159965
  C        23.4895160588        6.7262981133       11.3940893769
  C        22.8448851220        5.6993631019       10.7059684776
  C        25.1077803307        7.5341255395       13.1345127754
  C        25.0834146847        7.5263734865       14.5561578280
  C        24.3779676820        6.5293622830       15.3012254143
  C        26.5595004748       17.8266104495        5.7871330934
  C        25.2592021631       17.8953209773        5.0617308813
  C        25.0066042402       18.9164808885        4.1325399293
  C        23.7989399659       18.9518192888        3.4397216515
  C        22.8121465965       17.9696991600        3.6561739612
  C        23.0599049903       16.9718502374        4.6172516745
  C        24.2686457667       16.9314361975        5.3084660386
  C        21.5465229700       17.9687864556        2.8841539614
  C        21.5553171930       17.9663990908        1.4623095450
  C        22.7661138042       17.8612403983        0.7072614622
  C        34.4140437433       17.2091288088        5.9091328692
  C        35.7108362321       17.1347846863        5.1740596308
  C        35.9049356980       16.1627106535        4.1801461902
  C        37.0887293392       16.1316861953        3.4475506153
  C        38.1098261184       17.0727904186        3.6852961343
  C        37.9181779633       18.0235976122        4.7064744059
  C        36.7334165308       18.0587447820        5.4384759742
  C        39.3639724646       17.0732040431        2.8963220392
  C        39.3593158576       17.0799903680        1.4735983676
  C        38.1517153859       17.1920557742        0.7148956597
  C        20.3113964657       17.9825890530        0.7500441066
  C        20.3209312947       17.9578577518        3.5625007907
  C        34.4476193974       17.2445544802       10.1776031537
  C        35.7468644717       17.1461742162       10.9047338310
  C        35.9702393674       16.1385119524       11.8556802456
  C        37.1573939350       16.1089032358       12.5837610038
  C        38.1539600472       17.0828257361       12.3778712169
  C        37.9390527155       18.0635193441       11.3912164296
  C        36.7497931687       18.0999653457       10.6685730380
  C        39.4028890913       17.0917499567       13.1735734595
  C        39.3793502990       17.0880322973       14.5950831315
  C        38.1612016542       17.1925933144       15.3378857049
  C        35.0965562758       26.6537796791       15.2894705095
  C        35.1445598879       26.6606321003       12.4797644812
  C        26.5634619870       17.8237875201       10.3279089536
  C        25.2513608327       17.8764398444       11.0327751006
  C        24.9646954085       18.9245080021       11.9203712420
  C        23.7465694343       18.9582639569       12.5926211355
  C        22.7870775339       17.9461596747       12.3963558878
  C        23.0670295702       16.9209103070       11.4755806735
  C        24.2864746116       16.8838919936       10.8028887789
  C        21.5214043877       17.9415997008       13.1653308982
  C        21.5415157444       17.9520425027       14.5859399389
  C        22.7595561437       17.8552984109       15.3308158225
  C        14.0449725371       17.8319939004       10.2841147011
  C        15.3509329224       17.8974835251       11.0019634130
  C        15.6096244155       18.9147775057       11.9333444883
  C        16.8197969680       18.9437964440       12.6223552922
  C        17.8022036708       17.9580300985       12.4010819251
  C        17.5492262328       16.9655783429       11.4359426457
  C        16.3386315160       16.9325073745       10.7478501054
  C        19.0681449959       17.9479401239       13.1716533674
  C        19.0605577347       17.9559921159       14.5932619224
  C        17.8498943882       17.8578064287       15.3488681432
  C        46.8025994933       17.2177824986       10.1591920150
  C        45.5109749416       17.1511370561       10.9043551834
  C        45.3055469452       16.1675349094       11.8845653458
  C        44.1228504649       16.1414618604       12.6194031114
  C        43.1135912306       17.0991097859       12.3977478339
  C        43.3165738626       18.0629004544       11.3911377636
  C        44.5000038169       18.0925631562       10.6566981370
  C        41.8590003157       17.1003487493       13.1865563861
  C        41.8637536630       17.0899949217       14.6091706446
  C        43.0720378269       17.1859071549       15.3689217765
  C        20.3040987615       17.9744654329       15.3059302123
  C        20.2936284803       17.9199312591       12.4933859098
  C        46.7824422026       17.2302096315        5.8884395220
  C        45.4779469264       17.1184333807        5.1734451482
  C        45.2612998072       16.1140761736        4.2174347406
  C        44.0722268741       16.0777628382        3.4927088211
  C        43.0682087375       17.0425025705        3.7059889690
  C        43.2755768709       18.0172159581        4.7001889805
  C        44.4659898694       18.0598767712        5.4201394070
  C        41.8201684805       17.0544201957        2.9091470244
  C        41.8439425652       17.0652035544        1.4876414995
  C        43.0625121973       17.1716869724        0.7457849569
  C        46.1530774128       26.6371381680        0.7262222062
  C        46.1620544475       26.6560249380        3.5358624172
  C        14.0401782659       17.8302926755        5.7071601553
  C        15.3544900185       17.9052634112        5.0082447222
  C        15.6205766575       18.9312875424        4.0895330255
  C        16.8443755921       18.9753159910        3.4269602409
  C        17.8265941136       17.9922907811        3.6588677605
  C        17.5660575525       16.9921038438        4.6127430588
  C        16.3444242454       16.9479188715        5.2794547674
  C        19.0924406554       17.9808584097        2.8908425207
  C        19.0735031318       17.9724508767        1.4698649528
  C        17.8562832662       17.8652255066        0.7250683710
  C        28.8116532762       14.0834462495       10.3625882766
  C        28.2154966994       12.9046629085       11.0509452769
  C        28.9477033766       12.1772646415       12.0004837422
  C        28.3593310288       11.0994488051       12.6575703929
  C        27.0271193683       10.7270025822       12.3874204401
  C        26.3178868481       11.4352341713       11.4007911652
  C        26.9028466981       12.5131587370       10.7429376643
  C        26.3625691581        9.6440142150       13.1467710169
  C        26.3358266737        9.6693521144       14.5673063689
  C        26.8350002910       10.7801654894       15.3189029216
  C        32.1792107608       21.2390700322       10.1077816370
  C        32.7621366653       22.4043600883       10.8382011369
  C        32.0056520530       23.0753527422       11.8119233757
  C        32.5675500942       24.1148101595       12.5484313713
  C        33.9013670236       24.5138831424       12.3332199985
  C        34.6402498801       23.8597811232       11.3285264849
  C        34.0817959593       22.8146814435       10.5945139669
  C        34.5225557564       25.5929901268       13.1377680805
  C        34.5050930489       25.5697379808       14.5602671829
  C        33.9902248348       24.4582873408       15.2994579484
  C        25.7128689501        8.5931056529       15.2773145124
  C        25.7315157737        8.5949100237       12.4658803292
  C        32.0688801094       21.1925431491        5.8402199988
  C        32.6441600266       22.3635409638        5.1127458952
  C        31.9111210945       23.0190081237        4.1110347186
  C        32.4835607265       24.0640993153        3.3887846981
  C        33.8047591032       24.4823671659        3.6447245304
  C        34.5180382736       23.8424065630        4.6769449391
  C        33.9494901449       22.7953644082        5.3976966427
  C        34.4460265793       25.5659029286        2.8624176327
  C        34.4657456171       25.5561809918        1.4395607465
  C        33.9706343165       24.4521480129        0.6763393262
  C        40.6062078597       17.0590268307        0.7640626120
  C        40.5889900076       17.0761245790        3.5743448902
  C        28.6767891404       14.0311930968        5.8247172924
  C        28.0629459525       12.8898592935        5.0874935525
  C        28.8165833501       12.1702867108        4.1472634000
  C        28.2377851487       11.1234423097        3.4366201861
  C        26.8909938255       10.7680663774        3.6454999592
  C        26.1529923699       11.4719744333        4.6150398236
  C        26.7298522680       12.5224827754        5.3259410191
  C        26.2608552093        9.6809328388        2.8619745957
  C        26.2848522964        9.6888113861        1.4411222235
  C        26.8087176729       10.7905149160        0.6946134850
  C        18.1352431058        3.1808705676       10.3171983522
  C        17.4055655078        4.2779668710       11.0157358149
  C        16.3896471983        3.9993424767       11.9429430097
  C        15.7416238932        5.0391570991       12.6064171912
  C        16.0934275301        6.3829255202       12.3669281926
  C        17.0830417997        6.6527196530       11.4034946075
  C        17.7324436812        5.6155375166       10.7384799033
  C        15.4688936341        7.4904832587       13.1300207298
  C        15.4842486326        7.4899036758       14.5517355632
  C        16.1860020022        6.4963925038       15.3048522076
  C        42.9457375638       31.8594918915       10.0728199026
  C        43.6461054456       30.7717509997       10.8167651590
  C        44.5916595596       31.0931109522       11.8027906086
  C        45.1973415606       30.0875548448       12.5504666035
  C        44.8708222233       28.7345088624       12.3356917664
  C        43.9450054882       28.4201653551       11.3224797760
  C        43.3361864953       29.4252927649       10.5744142871
  C        45.4884597913       27.6552292556       13.1388635031
  C        45.4925398847       27.6808255159       14.5605586305
  C        44.8055523839       28.6889429356       15.3071777709
  C        14.8553297107        8.5624283476       15.2641007263
  C        14.8735248205        8.5621722300       12.4514195165
  C        42.9463936487       31.9616077239        5.8090037702
  C        43.6915910375       30.8853994234        5.0955180253
  C        44.6562948562       31.1913324122        4.1233490134
  C        45.2777585644       30.1717290472        3.4055864099
  C        44.9537809866       28.8214417883        3.6430534664
  C        44.0201191779       28.5237746502        4.6536557522
  C        43.3919004134       29.5405378221        5.3658823406
  C        45.5627913519       27.7240244663        2.8578030625
  C        45.5330804970       27.7172799238        1.4365087468
  C        44.8268278045       28.7075675524        0.6835702164
  C        35.0790341264       26.6454189789        0.7354824572
  C        35.0625694161       26.6217832688        3.5462577214
  C        18.1484123680        3.2468140155        5.7065923355
  C        17.4298153320        4.3436017434        4.9970900418
  C        16.4144594651        4.0523000065        4.0737165117
  C        15.7660590524        5.0829067215        3.3983550315
  C        16.1207761654        6.4281402751        3.6209510761
  C        17.1123927859        6.7115714927        4.5779398873
  C        17.7601078444        5.6826735151        5.2576971945
  C        15.4901091193        7.5237699803        2.8485291862
  C        15.4957426768        7.5070544154        1.4273892777
  C        16.1924433227        6.5053301461        0.6806649810
  H        10.6723035390       12.4662229130        3.9041059387
  H        11.6943097235       10.5513199631        2.6622596763
  H        15.3909438417       11.1675371436        4.7728511989
  H        14.3506749394       13.0703319480        6.0181957559
  H        13.3754675079       11.6307764188        1.2011286069
  H        50.3223623112       22.7484237117        3.9868991361
  H        49.3191575125       24.6227739365        2.6807559588
  H        45.6418075217       24.1612922565        4.8638976491
  H        46.6627381328       22.2904265370        6.1722336843
  H        47.6294130889       23.5757398178        1.2461935041
  H        14.8718857407        8.5880213197        4.6084474161
  H        50.2866023765       22.7022466106       12.0606021824
  H        49.2686203512       24.5750822647       13.3606890458
  H        45.6104211495       24.1096301201       11.1455251840
  H        46.6525027847       22.2543565849        9.8311656750
  H        47.6074059255       23.5516704972       14.7968915350
  H        40.6398313213       17.0961627654       11.4201162304
  H        48.6870849307       14.0950112991        7.8000131745
  H        10.6808831463       12.4672966092       12.0937785709
  H        11.6885837979       10.5251044447       13.2974743387
  H        15.3919717079       11.1567620108       11.2043243306
  H        14.3640200281       13.0854080887        9.9889806525
  H        13.3747617980       11.6215480775       14.7529959484
  H        47.9300885004       14.2181912404        9.7108363534
  H        47.7799200626       14.3737190686        6.4953146142
  H        49.0826017703       18.5521825222       10.8671663864
  H        10.4158771453       14.1343397218        7.9987782213
  H        24.4690932724        3.0234524588        3.9087846757
  H        25.5928622370        4.8823051625        2.6635839325
  H        23.1838583253        7.7465951563        4.7827252451
  H        22.0808761047        5.8785085362        6.0319759656
  H        23.7994783812        5.7740250433        1.2108411861
  H        36.3667218806       32.1934944795        3.9751838286
  H        35.2233418699       30.3793238322        2.7009541681
  H        37.4810414822       27.4384078689        4.8815518121
  H        38.6043176053       29.2657653364        6.1658327528
  H        36.9816126292       29.4575369735        1.2738650094
  H        25.6492649346        8.6095990701        4.6194108532
  H        36.4458850207       32.2442884099       12.1050812328
  H        35.3207775634       30.4327700836       13.3951369188
  H        37.5089881611       27.4866881537       11.1498565558
  H        38.6083504305       29.3102822369        9.8462832644
  H        37.0061297662       29.4748060306       14.8266338867
  H        46.1090414316       26.5875485735       11.3855458483
  H        44.6682765177       35.1162197409        7.8142132801
  H        24.4614820003        3.0276263668       12.0517406178
  H        25.6154992056        4.8639364506       13.2901252034
  H        23.2077990035        7.7623806723       11.2177227939
  H        22.0661286311        5.9144966438        9.9779746097
  H        23.8160887955        5.7730925707       14.7609864017
  H        44.9536990096       34.3898575409        9.6946695013
  H        44.9020891799       34.2069095664        6.4907762964
  H        40.6652335894       33.2083706896       10.8528497696
  H        23.1499411825        1.9578347657        8.0022939581
  H        25.7654824873       19.6784339927        3.9701012131
  H        23.6040924302       19.7481466118        2.7246145868
  H        22.3065313378       16.2060501611        4.7900240134
  H        24.4749755287       16.1486827433        6.0346641546
  H        23.7063955119       17.7510685608        1.2397589565
  H        35.1091895169       15.4468080381        3.9873508059
  H        37.2362670222       15.3697660306        2.6853057576
  H        38.6971575527       18.7593080373        4.8956330333
  H        36.5709529057       18.8091183654        6.2087647262
  H        37.2107172934       17.3104003493        1.2445738994
  H        20.3236566446       17.9821523119        4.6507606928
  H        35.2006981178       15.3877566129       12.0206478251
  H        37.3262213333       15.3252731821       13.3192012243
  H        38.7016319819       18.8217785785       11.2256935618
  H        36.5642174081       18.8750580536        9.9288296070
  H        37.2273018424       17.3096861889       14.7956620064
  H        35.1247039066       26.6835140308       11.3917843102
  H        28.5032995465       21.0792379105        7.8789221765
  H        25.7060613613       19.7074976593       12.0622272822
  H        23.5222052875       19.7726066388       13.2782248929
  H        22.3325322059       16.1331170328       11.3215261644
  H        24.5207400804       16.0822037318       10.1065466368
  H        23.6946199612       17.7417554865       14.7900847399
  H        29.0002972155       21.7156441078        9.7424589741
  H        29.2001976577       21.6979137546        6.5489755182
  H        32.1273266888       18.6138606845       10.8710075298
  H        27.3714296849       19.0298005430        8.0703867308
  H        14.8515677801       19.6763196221       12.1018661322
  H        17.0192679752       19.7370532462       13.3396068713
  H        18.2994268256       16.1978462472       11.2579340534
  H        16.1285488185       16.1539742571       10.0183707671
  H        16.9098824496       17.7417407576       14.8174042371
  H        46.0899673348       15.4360130485       12.0639425355
  H        43.9661777727       15.3699674906       13.3701352283
  H        42.5470048727       18.8114967397       11.2143357970
  H        44.6706526502       18.8513297924        9.8964726934
  H        44.0135937048       17.3042086644       14.8403103267
  H        20.2917181413       17.9337494276       11.4049573728
  H        46.0407001924       15.3757149268        4.0433820496
  H        43.9088185870       15.2977048195        2.7522623851
  H        42.5065552220       18.7674076309        4.8723827128
  H        44.6453164945       18.8316892512        6.1647041156
  H        43.9969965713       17.2779401191        1.2891441285
  H        46.1988438727       26.6826017454        4.6233090438
  H        52.7411217818       21.0626415816        8.1945859802
  H        14.8589347679       19.6875924754        3.9135004687
  H        17.0533217158       19.7741059004        2.7186241332
  H        18.3176184865       16.2269556950        4.7958523547
  H        16.1258574162       16.1652884596        6.0019080507
  H        16.9210412649       17.7549087949        1.2657295948
  H        52.3221108521       21.6736170239        6.2949067281
  H        52.0134040020       21.7024803695        9.4955010249
  H        49.0667920194       18.6075838329        5.2043591942
  H        13.2470059760       19.0166861206        7.9762514060
  H        29.9722917031       12.4760268437       12.2112306007
  H        28.9266877286       10.5339220195       13.3935788460
  H        25.2885159669       11.1559289847       11.1859783615
  H        26.3530178245       13.0821283162        9.9973935656
  H        27.2123026742       11.6463909036       14.7836363143
  H        30.9807417994       22.7566731903       11.9870609654
  H        31.9740417364       24.6330931319       13.2984386135
  H        35.6727166154       24.1563299598       11.1551392826
  H        34.6598712070       22.2868533137        9.8394047270
  H        33.6361739083       23.5878974192       14.7544692709
  H        25.7702426002        8.5780274786       11.3781299130
  H        30.8969145262       22.6864198486        3.9018480307
  H        31.9068005849       24.5716652194        2.6186758499
  H        35.5404207849       24.1525273456        4.8829142812
  H        34.5087249188       22.2805401166        6.1753242402
  H        33.6017582910       23.5766301910        1.2030736112
  H        40.5830461684       17.0437957191        4.6622175438
  H        32.5169560813       14.1455129271        8.2334662730
  H        29.8581906984       12.4417338668        3.9933414175
  H        28.8270883797       10.5617988658        2.7150823513
  H        25.1109007917       11.2066483118        4.7809719484
  H        26.1588411841       13.0844353486        6.0613170147
  H        27.1648914440       11.6646147575        1.2321651622
  H        33.2968687101       14.2271325815        6.4351770517
  H        33.4078504061       14.3870358636        9.5991121376
  H        32.0578110978       18.5006330720        5.0847151701
  H        30.2029782842       14.1376026014        8.0720789172
  H        16.1177389921        2.9627609292       12.1291317711
  H        14.9520337083        4.8195689630       13.3218594276
  H        17.3654508119        7.6856539573       11.2106645446
  H        18.5146971605        5.8183861369       10.0109165221
  H        16.7525287384        5.7390520473       14.7713170704
  H        44.8279351361       32.1402026069       11.9769375090
  H        45.9372299909       30.3413211069       13.3063856136
  H        43.6822595271       27.3781006325       11.1524216800
  H        42.5995254789       29.1899887173        9.8097798401
  H        44.2302411336       29.4367143379       14.7688325064
  H        14.8497402391        8.5453363102       11.3632010326
  H        44.8999903928       32.2340053831        3.9320472563
  H        46.0247784430       30.4129272469        2.6524514721
  H        43.7629549501       27.4840644567        4.8450544175
  H        42.6452662218       29.3178026813        6.1242138186
  H        44.2683543785       29.4704857242        1.2181484053
  H        35.0207063674       26.6338467623        4.6338035992
  H        36.6052631192       35.1339234491        8.1806358346
  H        16.1433578308        3.0127038580        3.9041357706
  H        14.9736040511        4.8560065147        2.6884330702
  H        17.3960023578        7.7470412769        4.7546501330
  H        18.5430537555        5.8931708791        5.9823746386
  H        16.7640409024        5.7552033681        1.2190900837
  H        36.2790346952       34.4818926831        6.2734066886
  H        36.3810348166       34.2090355291        9.4996331186
  H        40.5796484353       33.2022726965        5.1540015245
  H        17.4706620733        1.9471736694        7.9740079641
  H        28.7317599828       18.8863549370       12.1930015216
  H        28.6972859549       18.6635888993        3.7876031268
  H        30.7210904004       15.3477168663        3.7173903925
  H        32.3938155217       16.4470165400       12.1958592593
  H        29.0232905477       18.7461848783       14.6859730730
  H        18.8539002938        0.8690260741       12.3352442228
  H        40.5283228692       35.2290348086        3.9521941454
  H        42.3238063391       34.4191565072        3.5902696353
  H        22.0873039049        0.6922701524       12.3516763922
  H        11.5967374461       18.7127540852       12.3824690778
  H        52.2650413471       18.4310519517        3.6778751425
  H        49.2553304608       16.4764792323        3.5840295902
  H        10.1504688823       15.7982046091       12.2924858124
  H        50.8500494273       17.6927487323        3.9540275112
  H        10.0460703438       17.3946865911       12.0519532448
  H        20.2152445374        0.0020573229       12.0418996255
  H        39.1836809511       36.1242251701        3.6863618547
 Ni        30.4375764183       17.5208628204        2.6679063511
 Ni        30.0999635838       17.2836109473        0.3327830597
 Ni        30.3911277776       17.4495827329       13.0764987811
  O        10.6498496267       14.3652389149        5.4858168152
  O        12.6130864446       14.6574486823        6.5838469427
  O        49.1476139086       16.8459627855        7.9897230365
  O        50.3500517690       20.9362843443        5.6482528304
  O        48.3484394354       20.5932304812        6.6659910246
  O        11.0508313096       17.0540828629        6.5006825125
  O        50.3206709863       20.8816537729       10.4068578503
  O        48.3465988854       20.5866624007        9.3270392393
  O        49.5432212647       18.2483704662       10.0683357479
  O        12.3587217349       18.6246356757        7.9996646808
  O        48.6931534889       14.1486233848        6.7512996590
  O         8.2097978680       14.2104733130        9.3225152725
  O        10.7352322180       14.5068069450       10.6643438037
  O        12.5717061112       14.5827564299        9.3285589193
  O        22.8440777440        2.0419287238        5.4878529244
  O        21.6037601201        3.5913769413        6.5903750523
  O        42.0579458494       34.1370343098        7.9791140576
  O        37.9813090193       33.1361976360        5.5721909330
  O        39.2171549333       31.5748611718        6.6652760241
  O        20.3083490898        1.0396194604        6.5018247793
  O        38.0242067195       33.1849260819       10.4155532652
  O        39.2180298700       31.5827143758        9.3275627242
  O        40.6521123661       33.7690199033       10.0601958685
  O        18.2555758652        1.3763346338        7.9967828554
  O        44.6222387784       35.1005477543        6.7588869900
  O        24.2055059483       -0.0001602196        9.3207476392
  O        22.7529830231        2.0559605526       10.5825158286
  O        21.6241340507        3.5951755329        9.3414947646
  O        27.4605676146       18.6932245296        5.4851775470
  O        26.6893509009       16.9191151066        6.6686458956
  O        30.6293379793       19.3480770677        7.9916157850
  O        33.5345168720       16.3246374905        5.6499007512
  O        34.2679530739       18.1762728041        6.7378264696
  O        29.5324439781       17.0051365928        6.5738548719
  O        33.5586725417       16.3427883262       10.4139028260
  O        34.2985315706       18.2393551117        9.3984008154
  O        31.6495989103       18.3201097649       10.0789182746
  O        30.2894055291       15.1045566878        8.0691047017
  O        28.5518338947       21.0252800536        6.8279056804
  O        28.5090073193       20.9522565560        9.3947833185
  O        27.4549347297       18.6785241450       10.6582061958
  O        26.6883674292       16.9293558426        9.4181609894
  O        13.1463739153       18.6938468882       10.5861598024
  O        13.9179571608       16.9159954878        9.4041717575
  O        50.5955598000       19.3502522905        8.0206430988
  O        47.6823122939       16.3273271972       10.4175632545
  O        46.9499284034       18.1756131055        9.3257549818
  O        11.0688820822       17.0158940651        9.4895925375
  O        47.6746455958       16.3358852127        5.6529197711
  O        46.9243551321       18.2357927178        6.6629193982
  O        49.5685410681       18.3177783460        5.9822878326
  O        10.3186308597       15.1002069098        7.9971123683
  O        52.6706897287       21.0280147796        9.2418068500
  O        12.1468148010       20.8914365658        6.6733229782
  O        13.1042223933       18.6144924722        5.3263461158
  O        13.9558188265       16.9868770331        6.6649806905
  O        29.9983064502       14.4391448482       10.6642360772
  O        28.0718657370       14.6556759438        9.4879940031
  O        32.0694593520       16.8531765149        8.0123258362
  O        30.9577652660       20.9505863552       10.3361980223
  O        32.9555567406       20.5908779676        9.3227575923
  O        29.5597231791       17.0654596305        9.5697114429
  O        30.8507765911       20.8719655649        5.5833089181
  O        32.8520115610       20.5848112412        6.6508164796
  O        31.6100573096       18.2371568202        5.9055675103
  O        28.2562212069       18.6295956972        8.0611015613
  O        32.4927479028       14.2104767172        9.3156432467
  O        32.4023299593       14.2157445029        6.8152167728
  O        29.8671539763       14.3674009608        5.4979004401
  O        27.9677756759       14.5803994563        6.7412955041
  O        17.8891706673        1.9665198543       10.6628585788
  O        18.9560611247        3.5271887573        9.4081191209
  O        39.1684522329       34.1385839113        7.9971859708
  O        43.2802011473       33.0588257256       10.3317426464
  O        42.0343308928       31.5064079277        9.2416142059
  O        20.3172727623        1.0361252044        9.4802945491
  O        43.2761427067       33.1825062040        5.5749175286
  O        42.0051968656       31.5841068212        6.5829773913
  O        40.5789925523       33.7751285905        5.9360067378
  O        22.3670828632        1.3842357700        7.9980569148
  O        36.6727878631       35.0997225642        9.2332986887
  O        16.4455914801        0.0641297716        6.6682531337
  O        17.9363582916        2.0431849145        5.3263618968
  O        18.9187255830        3.5931887242        6.6658719996
  O        29.6507445641       18.6900863389        3.9984353950
  O        29.6899620417       18.9089013667       11.9944292973
  O        31.0985555934       16.1953821833        4.0148517762
  O        31.4458483848       16.3352482895       11.9975817761
  O        29.4579478749       17.8764673873       14.6890407866
  O        39.4568491783       35.2436330910        4.0019744633
  O        19.1416650264        0.0045197427       11.9905016415
  O        41.9695030763       35.1728615676        4.0872022248
  O        21.6912670527       -0.0693918066       11.8961102053
  O        51.3650262288       18.6144188013        4.0052637541
  O        10.7509149422       18.7471710315       11.9050060257
  O        50.0795558326       16.4127408737        4.0916989948
  O         9.5245012596       16.4830646604       11.9911697343
 Zr         9.2966198673       16.0528597040        6.1821549723
 Zr        49.8361229531       16.0068407184        9.7466455049
 Zr        22.0733960273        0.0296761899        6.1893533261
 Zr        42.4609106796       35.1533916594        9.8011230209
 Zr        29.5645735515       19.0341844100        6.2205427194
 Zr        29.5743913000       19.1797829794        9.8138737064
 Zr        11.0372351504       19.0523828019        9.8277171985
 Zr        11.0431781301       19.1552087778        6.2511673744
 Zr        31.3301342281       16.0834183123        9.8148042128
 Zr        31.3375552971       15.9780442205        6.2182096261
 Zr        18.6011350911       -0.0016352438        9.7636697522
 Zr        18.5066479195       -0.0078586668        6.2135795198
 Zr        12.3010073248       16.3232223123        7.9904125252
 Zr        48.6156834124       18.8328852981        8.0101450820
 Zr        20.3146726949        2.4731711024        7.9909389278
 Zr        40.6429346073       32.6869083498        7.9781671901
 Zr        28.3172080332       16.3131600528        8.0845308564
 Zr        32.6027640145       18.8274054665        8.0105588738
  H        31.1038560212       16.7190687546        1.4597623927
