     564
 i =      341, E =     -4680.1645155477
  C        11.8585744296       14.0534751689        5.7416015822
  C        12.4559885300       12.8904113163        5.0233171339
  C        11.7043108424       12.1717244516        4.0814731806
  C        12.2805869551       11.1094903264        3.3890684924
  C        13.6210593561       10.7394036964        3.6169432717
  C        14.3541854338       11.4426958638        4.5906533557
  C        13.7813742978       12.5076757229        5.2822324495
  C        14.2604958853        9.6486810713        2.8435363397
  C        14.2556896210        9.6565092827        1.4218216230
  C        13.7425286414       10.7586120433        0.6678775453
  C        49.1265490902       21.2333670298        5.8797993183
  C        48.5496758843       22.4011936491        5.1526887064
  C        49.2997483631       23.0685909219        4.1717685591
  C        48.7327753032       24.1076572487        3.4385163349
  C        47.4021710235       24.5091526535        3.6670280551
  C        46.6711518903       23.8601648710        4.6804208497
  C        47.2336426048       22.8153184029        5.4098295792
  C        46.7719640395       25.5868571639        2.8697436209
  C        46.7610424823       25.5572783540        1.4479793836
  C        47.2609988257       24.4421924465        0.7044909877
  C        14.8594781161        8.5700816238        0.7085490661
  C        14.8912726705        8.5967127335        3.5201728590
  C        49.1128859622       21.2034468641       10.1453397422
  C        48.5274516432       22.3647627223       10.8724661287
  C        49.2666904444       23.0255473632       11.8653337070
  C        48.6903312317       24.0600927191       12.5967684372
  C        47.3598485624       24.4566968765       12.3586336260
  C        46.6394027925       23.8116852543       11.3352057825
  C        47.2129843213       22.7757823003       10.6034375130
  C        46.7214122568       25.5316773164       13.1496425408
  C        46.7332331105       25.5280769019       14.5713427291
  C        47.2487116329       24.4288874806       15.3277294012
  C        40.6167875114       17.0830631671       15.3078878603
  C        40.6273521890       17.0969975904       12.4977841050
  C        11.8826577011       14.0863954387       10.2854084892
  C        12.4716753653       12.9102780021       10.9894688988
  C        11.7141180693       12.1774851911       11.9158645763
  C        12.2804464467       11.0948973282       12.5843028873
  C        13.6190698807       10.7206235164       12.3522278583
  C        14.3570126348       11.4356783611       11.3910129044
  C        13.7918367324       12.5169742022       10.7183069988
  C        14.2525711197        9.6238568900       13.1227041065
  C        14.2514765576        9.6439304890       14.5445527087
  C        13.7418179298       10.7529826561       15.2916183017
  C        22.5084415668        3.2436234586        5.7502436716
  C        23.2164164958        4.3481632318        5.0431298776
  C        24.2133289909        4.0667277286        4.0974152629
  C        24.8369603530        5.1050396841        3.4106538258
  C        24.4786881671        6.4466851382        3.6491732018
  C        23.5079171126        6.7197570083        4.6300296734
  C        22.8802069215        5.6832467172        5.3157546600
  C        25.0872428848        7.5516588649        2.8741155126
  C        25.0738915858        7.5411346417        1.4525959519
  C        24.3762392699        6.5415220725        0.7029659358
  C        38.2977259439       31.9275812374        5.8517044859
  C        37.5552478670       30.8395434635        5.1503921776
  C        36.5885972582       31.1479983395        4.1805437671
  C        35.9561324594       30.1314009320        3.4699247348
  C        36.2746090374       28.7793030966        3.7050856410
  C        37.2108265892       28.4782812079        4.7125927735
  C        37.8471652086       29.4939300261        5.4229289949
  C        35.6613361639       27.6925620125        2.9060348842
  C        35.6976974199       27.7089849785        1.4840662973
  C        36.4107136490       28.7092598976        0.7505443727
  C        25.7067287402        8.6077252860        0.7361258462
  C        25.6773878234        8.6284922328        3.5476743122
  C        38.3295010242       31.9601082863       10.1605368546
  C        37.6108559500       30.8878939517       10.9097408659
  C        36.6771028927       31.1992523188       11.9104882120
  C        36.0640681457       30.1838831341       12.6428498576
  C        36.3691017708       28.8292846966       12.3997702075
  C        37.2840068199       28.5278807578       11.3718271798
  C        37.8988377765       29.5398520807       10.6403309143
  C        35.7506219622       27.7324716042       13.1820464538
  C        35.7431777445       27.7294583366       14.6049356440
  C        36.4310522901       28.7200712425       15.3738754978
  C        46.1352397365       26.6207176584       15.2814781205
  C        46.0873358009       26.5799609706       12.4735998243
  C        22.4634308184        3.2548440780       10.2545912848
  C        23.1653393216        4.3619955946       10.9715286753
  C        24.1745064898        4.0725091627       11.9036026696
  C        24.8099890275        5.1006555553       12.5952598562
  C        24.4558240991        6.4469399268       12.3772547406
  C        23.4703097410        6.7298997433       11.4129715846
  C        22.8304852711        5.7019457519       10.7212980895
  C        25.0902149501        7.5417677041       13.1524846713
  C        25.0766092486        7.5351607495       14.5747343747
  C        24.3752274780        6.5401147929       15.3263512363
  C        26.5654053312       17.8265401050        5.7867053443
  C        25.2648903726       17.8894541954        5.0583996910
  C        25.0109214670       18.9065564656        4.1252743996
  C        23.8029800078       18.9390904953        3.4325833460
  C        22.8159291718       17.9579370542        3.6530856833
  C        23.0648931901       16.9639061895        4.6176682587
  C        24.2742516219       16.9265884294        5.3084382164
  C        21.5495134276       17.9550583146        2.8818552546
  C        21.5577294918       17.9521481620        1.4599124285
  C        22.7679684290       17.8443676540        0.7043123092
  C        34.4123848538       17.2251582377        5.8823012770
  C        35.7131054448       17.1625135594        5.1531940936
  C        35.9154704819       16.1945008662        4.1569677778
  C        37.1020212707       16.1701388962        3.4298132098
  C        38.1180589213       17.1146087219        3.6750481495
  C        37.9191044615       18.0611595740        4.6984922051
  C        36.7310645231       18.0889077328        5.4259900253
  C        39.3724642654       17.1172572377        2.8875856011
  C        39.3650827212       17.1209692594        1.4650533203
  C        38.1569426170       17.2427603258        0.7086944457
  C        20.3138119665       17.9715453249        0.7477821694
  C        20.3237521601       17.9457226389        3.5603663907
  C        34.4346456095       17.2368424767       10.1850259468
  C        35.7361132626       17.1345102181       10.9065768597
  C        35.9383603250       16.1582538276       11.8937099395
  C        37.1287725157       16.1267037215       12.6163181279
  C        38.1467677465       17.0696818682       12.3722307440
  C        37.9505808128       18.0179797680       11.3504480175
  C        36.7595704967       18.0551071677       10.6313013266
  C        39.3968313098       17.0846127365       13.1653174914
  C        39.3775616988       17.1036437340       14.5870648650
  C        38.1628138472       17.2320823008       15.3318334602
  C        35.1016899556       26.6537226222       15.3055369342
  C        35.1657507612       26.6602013714       12.4955607613
  C        26.5683076078       17.8282268010       10.3278235378
  C        25.2528098217       17.8879809899       11.0266739394
  C        24.9771306905       18.9206560923       11.9353843770
  C        23.7590017492       18.9544378671       12.6076445858
  C        22.7880618573       17.9572018649       12.3912526365
  C        23.0559508973       16.9502481298       11.4467306254
  C        24.2753011929       16.9133824086       10.7740717668
  C        21.5237196986       17.9475273433       13.1620421084
  C        21.5439008259       17.9478220771       14.5830252666
  C        22.7613955420       17.8429989416       15.3278474735
  C        14.0453492195       17.8324054836       10.2838646995
  C        15.3516998918       17.8990253493       11.0010562957
  C        15.6092720532       18.9153659879       11.9338270830
  C        16.8197127301       18.9453246401       12.6224017826
  C        17.8037183329       17.9616486728       12.3991419544
  C        17.5519098658       16.9704009883       11.4324458522
  C        16.3409702313       16.9361992443       10.7449592179
  C        19.0699793743       17.9514554922       13.1694648815
  C        19.0627212398       17.9531051424       14.5911128255
  C        17.8521939228       17.8525667942       15.3465648451
  C        46.8016173046       17.2158784750       10.1567542983
  C        45.5075456155       17.1444641394       10.8964693544
  C        45.3021504189       16.1593700215       11.8751448517
  C        44.1177219059       16.1299139847       12.6068579606
  C        43.1070062579       17.0853511160       12.3831190034
  C        43.3090045249       18.0491767314       11.3764449747
  C        44.4943441790       18.0824692527       10.6453285218
  C        41.8534775633       17.0887716524       13.1733677854
  C        41.8620659406       17.0924883558       14.5958584736
  C        43.0724837403       17.1897494024       15.3520501653
  C        20.3065094709       17.9681343466       15.3034700572
  C        20.2951921971       17.9292558355       12.4908468720
  C        46.7837328360       17.2324558036        5.8861548848
  C        45.4818193037       17.1278315703        5.1662106157
  C        45.2632959713       16.1270888240        4.2069032704
  C        44.0758983221       16.0982001512        3.4791340636
  C        43.0759945425       17.0673396205        3.6920697610
  C        43.2858080889       18.0392821437        4.6885046647
  C        44.4740725646       18.0741340720        5.4119518606
  C        41.8278609470       17.0851912291        2.8961968450
  C        41.8490931945       17.0896730660        1.4745237664
  C        43.0663956248       17.1853033214        0.7291724573
  C        46.1530392316       26.6371631258        0.7262303714
  C        46.1619750083       26.6559422774        3.5358826439
  C        14.0407303162       17.8295453036        5.7065246018
  C        15.3552784447       17.9020658703        5.0069107379
  C        15.6233881414       18.9263103394        4.0867320599
  C        16.8474508659       18.9675680522        3.4241341634
  C        17.8286027032       17.9835262171        3.6570565731
  C        17.5660161395       16.9851264089        4.6123465974
  C        16.3441450395       16.9437191830        5.2790493788
  C        19.0948839693       17.9696245885        2.8890033938
  C        19.0759443155       17.9615936193        1.4678558447
  C        17.8586838524       17.8564436569        0.7228117218
  C        28.8162677831       14.0819098661       10.3664931102
  C        28.2181236924       12.9054873867       11.0578232645
  C        28.9522495572       12.1557536388       11.9886630496
  C        28.3573030352       11.0817759415       12.6464611130
  C        27.0158115585       10.7310919311       12.3935060526
  C        26.3036862698       11.4594565732       11.4237878031
  C        26.8948132999       12.5353777799       10.7676457529
  C        26.3491898829        9.6497634857       13.1552414430
  C        26.3334311413        9.6750938236       14.5760145348
  C        26.8407563301       10.7851119824       15.3232060490
  C        32.1772762833       21.2337479288       10.1475861761
  C        32.7686009936       22.4021144918       10.8663673179
  C        32.0138082509       23.0858785287       11.8324347095
  C        32.5794298295       24.1281872436       12.5608292293
  C        33.9164651761       24.5161102861       12.3463953824
  C        34.6538546417       23.8510414670       11.3482026407
  C        34.0904567359       22.8037403481       10.6207208615
  C        34.5396236526       25.5935480621       13.1507814876
  C        34.5145377637       25.5698458832       14.5731481395
  C        33.9947738220       24.4584545818       15.3093939364
  C        25.7137972891        8.6005463150       15.2917130204
  C        25.7107613301        8.6021394372       12.4789352960
  C        32.0707050108       21.1983374688        5.8789722433
  C        32.6385490649       22.3657396434        5.1401606130
  C        31.9018552761       23.0154025625        4.1376703019
  C        32.4721117843       24.0566351619        3.4068710387
  C        33.7932782694       24.4785186734        3.6574824558
  C        34.5105734119       23.8426490814        4.6895277596
  C        33.9456226903       22.7982132348        5.4163205627
  C        34.4330115324       25.5637840791        2.8753368457
  C        34.4586496883       25.5553755907        1.4525198627
  C        33.9667655253       24.4520397763        0.6862151024
  C        40.6099139970       17.0868398954        0.7533283599
  C        40.5980915050       17.1158256662        3.5638502733
  C        28.7334043441       14.0648019002        5.7889444466
  C        28.1186228816       12.9168407945        5.0608498911
  C        28.8622004135       12.1966665571        4.1129542741
  C        28.2795562325       11.1402150318        3.4185003812
  C        26.9377110851       10.7766446804        3.6477752071
  C        26.2112120422       11.4812540724        4.6256795077
  C        26.7923678231       12.5390997234        5.3223962066
  C        26.2985823984        9.6867701489        2.8730208611
  C        26.3073823248        9.6950107084        1.4513569249
  C        26.8253354235       10.7960043386        0.6991782722
  C        18.1352715710        3.1807913824       10.3171407223
  C        17.4056186742        4.2779151996       11.0156255243
  C        16.3900747729        3.9992953177       11.9432622421
  C        15.7420576428        5.0391091590       12.6067381289
  C        16.0935195896        6.3829276893       12.3669644594
  C        17.0826317724        6.6527011247       11.4029875682
  C        17.7320130421        5.6155286534       10.7379485549
  C        15.4690452274        7.4905192999       13.1300361777
  C        15.4844302639        7.4898931947       14.5517527903
  C        16.1860933202        6.4963627358       15.3049302461
  C        42.9457294004       31.8594081780       10.0728086321
  C        43.6459932700       30.7717223222       10.8167444334
  C        44.5915512819       31.0930023877       11.8028115071
  C        45.1971282159       30.0874290890       12.5505253891
  C        44.8706087004       28.7343823852       12.3356729328
  C        43.9447428139       28.4200843592       11.3224859029
  C        43.3360534425       29.4252538460       10.5743851601
  C        45.4881778965       27.6551008390       13.1388806115
  C        45.4924713354       27.6808105429       14.5605664318
  C        44.8053804600       28.6888553379       15.3071871106
  C        14.8555589218        8.5624533963       15.2641059064
  C        14.8736547596        8.5622261244       12.4514494226
  C        42.9463436722       31.9614386498        5.8090079053
  C        43.6914802578       30.8853314877        5.0955195657
  C        44.6561607482       31.1912366612        4.1232913959
  C        45.2776272645       30.1716391865        3.4055511225
  C        44.9536898345       28.8213336157        3.6430767168
  C        44.0200816038       28.5236735992        4.6537387797
  C        43.3918647234       29.5404472533        5.3659374729
  C        45.5627255739       27.7239532895        2.8578187782
  C        45.5330760025       27.7173194426        1.4365225931
  C        44.8266925323       28.7075164145        0.6835810847
  C        35.0757700579       26.6449009873        0.7514562489
  C        35.0463756917       26.6198441107        3.5621618397
  C        18.1484565672        3.2468217968        5.7066191504
  C        17.4296958666        4.3436122966        4.9973573015
  C        16.4145804339        4.0522384032        4.0737173203
  C        15.7661739766        5.0827988268        3.3982997703
  C        16.1206029098        6.4280902697        3.6210774258
  C        17.1118161491        6.7115743061        4.5784853499
  C        17.7595590318        5.6827332536        5.2582968005
  C        15.4900512561        7.5237367300        2.8485937209
  C        15.4957787221        7.5070258157        1.4274499239
  C        16.1924666707        6.5052794842        0.6807445052
  H        10.6722663353       12.4660908954        3.9043321197
  H        11.6942652706       10.5511767765        2.6624228682
  H        15.3911196354       11.1678361261        4.7725492380
  H        14.3507790662       13.0706440602        6.0179134387
  H        13.3756607301       11.6308168467        1.2011616360
  H        50.3224960545       22.7486286994        3.9871191109
  H        49.3192527202       24.6229849543        2.6809740720
  H        45.6415794665       24.1607636495        4.8634340273
  H        46.6625630681       22.2899655539        6.1717965828
  H        47.6294737753       23.5757859708        1.2461760599
  H        14.8716630856        8.5880155227        4.6084841284
  H        50.2867791994       22.7027893525       12.0601643307
  H        49.2687062541       24.5756137766       13.3602382032
  H        45.6099196697       24.1087362095       11.1462808879
  H        46.6520954745       22.2535135235        9.8319963061
  H        47.6074240745       23.5517363473       14.7968411406
  H        40.6311889791       17.0612255552       11.4100026909
  H        48.6870022129       14.0951122965        7.8000134589
  H        10.6808018498       12.4669856207       12.0934857859
  H        11.6885950832       10.5248227080       13.2972070845
  H        15.3922792051       11.1573552549       11.2048183360
  H        14.3641750869       13.0859878259        9.9894962825
  H        13.3749831578       11.6215872532       14.7529718938
  H        47.9300054109       14.2186506393        9.7106754295
  H        47.7798679668       14.3737743189        6.4952875638
  H        49.0820126160       18.5517623004       10.8669171607
  H        10.4155826313       14.1343566866        7.9987883450
  H        24.4778509966        3.0280803903        3.9119608407
  H        25.6115904770        4.8869413844        2.6786760776
  H        23.2234718675        7.7526775054        4.8197055072
  H        22.1094287375        5.8841591699        6.0557958963
  H        23.8096179198        5.7866583622        1.2403718835
  H        36.3575320948       32.1924842400        3.9851497024
  H        35.2074819833       30.3762209866        2.7196245747
  H        37.4652747269       27.4376739108        4.9031842967
  H        38.5951103290       29.2670489065        6.1790902647
  H        36.9737638714       29.4581956487        1.2997730713
  H        25.7007158887        8.6152549194        4.6358464216
  H        36.4506347458       32.2439872137       12.1112572038
  H        35.3335278528       30.4335451476       13.4091810808
  H        37.5342332364       27.4871739821       11.1765600609
  H        38.6253703349       29.3093452605        9.8648711167
  H        37.0105332410       29.4769809044       14.8530782692
  H        46.1086092624       26.5872608814       11.3855642085
  H        44.6681257046       35.1160876946        7.8140297913
  H        24.4506483637        3.0333808062       12.0676862599
  H        25.5952705701        4.8700793502       13.3120334871
  H        23.1858853480        7.7652312531       11.2364138682
  H        22.0534372635        5.9166212224        9.9912883500
  H        23.8072142608        5.7847320024       14.7911841563
  H        44.9532494941       34.3897346177        9.6947058345
  H        44.9014948168       34.2066886749        6.4906416037
  H        40.6657066427       33.2085950790       10.8530038970
  H        23.1503140651        1.9575318626        8.0039100779
  H        25.7691388941       19.6685837949        3.9603957971
  H        23.6077836873       19.7329064713        2.7147675973
  H        22.3117107527       16.1987902209        4.7943832751
  H        24.4802956009       16.1471999845        6.0382567332
  H        23.7078678943       17.7292804148        1.2364090337
  H        35.1238334492       15.4756185151        3.9595053979
  H        37.2567902048       15.4115563938        2.6657242356
  H        38.6946373003       18.7990520493        4.8933648676
  H        36.5622333151       18.8352773082        6.1988508454
  H        37.2191584667       17.3781668585        1.2399334956
  H        20.3267894255       17.9711770395        4.6486162230
  H        35.1443859768       15.4423035431       12.0932639349
  H        37.2826079628       15.3669954573       13.3795294860
  H        38.7288773493       18.7527764183       11.1551580602
  H        36.5888746004       18.8067053374        9.8643408237
  H        37.2293560674       17.3583263407       14.7908687583
  H        35.1514076545       26.6826415908       11.4074993044
  H        28.5010014663       21.0701654607        7.8913906130
  H        25.7285836212       19.6901146957       12.0961354640
  H        23.5442407551       19.7569626436       13.3100013260
  H        22.3123377709       16.1747590442       11.2749747543
  H        24.5001504717       16.1245498329       10.0602816031
  H        23.6961698246       17.7276140809       14.7869771381
  H        29.0221082045       21.7067695841        9.7352870170
  H        29.2055063379       21.6922120160        6.5650508496
  H        32.1080431153       18.5598647639       10.9846019767
  H        27.3734859105       19.0241367162        8.0846127271
  H        14.8500383508       19.6754001641       12.1038473473
  H        17.0180157304       19.7376756487       13.3409818588
  H        18.3034372857       16.2043500820       11.2528361236
  H        16.1319091914       16.1584356872       10.0143616792
  H        16.9120435880       17.7384001163       14.8149278671
  H        46.0883465190       15.4302810448       12.0565411139
  H        43.9612710530       15.3585254845       13.3577522140
  H        42.5374640398       18.7953174619       11.1979194977
  H        44.6649604536       18.8417147936        9.8855839489
  H        44.0133619230       17.2998853867       14.8205055850
  H        20.2926648808       17.9503166860       11.4025336936
  H        46.0394543829       15.3851492019        4.0334875511
  H        43.9102357919       15.3201763577        2.7370680120
  H        42.5200589645       18.7929290995        4.8601333728
  H        44.6552474657       18.8432831256        6.1587642309
  H        44.0027569758       17.2909066638        1.2694485790
  H        46.1986987070       26.6824062824        4.6233342639
  H        52.7411060280       21.0625878293        8.1945945514
  H        14.8631145458       19.6837120976        3.9093795303
  H        17.0573771534       19.7652444330        2.7148237216
  H        18.3162543494       16.2189940541        4.7968104081
  H        16.1246080212       16.1622734691        6.0024908238
  H        16.9233959556       17.7452828188        1.2632365253
  H        52.3220429601       21.6734901683        6.2948171125
  H        52.0132039375       21.7023246953        9.4954057116
  H        49.0671258641       18.6077691572        5.2042715116
  H        13.2470558401       19.0165619113        7.9759477626
  H        29.9873314014       12.4271912488       12.1829365063
  H        28.9271295201       10.5009331015       13.3685207232
  H        25.2671690512       11.1979144295       11.2212206972
  H        26.3413932108       13.1199793558       10.0370252396
  H        27.2144189211       11.6508381303       14.7844062336
  H        30.9870324540       22.7742861702       12.0081530703
  H        31.9876640713       24.6564596418       13.3051855168
  H        35.6887585514       24.1394937374       11.1756950288
  H        34.6669632380       22.2665392326        9.8710528224
  H        33.6435191500       23.5883209211       14.7621366777
  H        25.7415542046        8.5848355188       11.3909238905
  H        30.8869135043       22.6814149875        3.9337312036
  H        31.8925593438       24.5593534756        2.6356323538
  H        35.5332618524       24.1546412627        4.8910480483
  H        34.5083053203       22.2866118403        6.1935487564
  H        33.5940610264       23.5766951348        1.2106543620
  H        40.5936962467       17.0851411615        4.6517760860
  H        32.5084438817       14.1648053364        8.1833145031
  H        29.8998824587       12.4735924153        3.9419410993
  H        28.8626057761       10.5775994388        2.6926078941
  H        25.1731666804       11.2115050300        4.8090934565
  H        26.2288071137       13.0998508594        6.0644123025
  H        27.1859749845       11.6703905692        1.2330781160
  H        33.2943912765       14.2376074945        6.3627518033
  H        33.4122475090       14.3907524227        9.5265755682
  H        32.0466179471       18.5202802788        5.1024413125
  H        30.2285231378       14.1860119479        8.0827967229
  H        16.1183618969        2.9627129563       12.1297440175
  H        14.9527451569        4.8194978951       13.3224783025
  H        17.3646534454        7.6856613119       11.2097370395
  H        18.5138110297        5.8183736053       10.0098968147
  H        16.7525926047        5.7389819088       14.7714334887
  H        44.8278787613       32.1400702708       11.9770086905
  H        45.9369863043       30.3411159717       13.3064973777
  H        43.6819160702       27.3780423023       11.1524194087
  H        42.5994125172       29.1899238263        9.8097425738
  H        44.2299078830       29.4365399132       14.7688964054
  H        14.8497859592        8.5453861039       11.3632346802
  H        44.8997914620       32.2339106507        3.9319204857
  H        46.0245742686       30.4128217579        2.6523393858
  H        43.7629144228       27.4839654507        4.8451463793
  H        42.6452250785       29.3176305089        6.1242376255
  H        44.2681118259       29.4703520135        1.2181686250
  H        35.0007456472       26.6309983469        4.6495659318
  H        36.6052018272       35.1339617375        8.1806378641
  H        16.1436504000        3.0126295948        3.9039313754
  H        14.9739164925        4.8558452952        2.6881719172
  H        17.3950919312        7.7470851401        4.7554992854
  H        18.5422381598        5.8932746803        5.9832449418
  H        16.7639515212        5.7550650980        1.2191638644
  H        36.2788451130       34.4820346135        6.2734462736
  H        36.3807995580       34.2090248746        9.4996210079
  H        40.5787864648       33.2015312833        5.1543457124
  H        17.4709364080        1.9471186112        7.9740407224
  H        28.8540342865       19.0803277474       12.4644435410
  H        28.7717101651       18.8744773614        3.7638905559
  H        30.5818010630       15.5161437537        3.7335400874
  H        31.0906094331       15.5090520451       12.4940685606
  H        18.8533819020        0.8690461612       12.3350827896
  H        40.5281902893       35.2289738227        3.9521553660
  H        42.3230784977       34.4178605428        3.5910117698
  H        22.0876581840        0.6919965692       12.3515938963
  H        11.5966850656       18.7126413103       12.3824877459
  H        52.2647764471       18.4310891109        3.6776561057
  H        49.2548079818       16.4766570100        3.5843815006
  H        10.1500049610       15.7983909643       12.2928591177
  H        50.8498119892       17.6926345149        3.9540279984
  H        10.0457555796       17.3947828606       12.0519464458
  H        20.2146302217        0.0021620824       12.0420322088
  H        39.1836905114       36.1244004517        3.6863864629
 Ni        30.4831363441       17.6445008841        2.6637337485
 Ni        30.8566702463       16.6038915401        0.0823378759
 Ni        29.8029232268       18.4772660248        0.0828093591
 Ni        30.2673681024       17.4824850400       13.4922900791
  O        10.6498786194       14.3651531017        5.4858055827
  O        12.6131093129       14.6574395758        6.5838681461
  O        49.1475874581       16.8459733820        7.9897145807
  O        50.3500850770       20.9362647991        5.6482312184
  O        48.3484767692       20.5932505234        6.6659923388
  O        11.0509140445       17.0540006611        6.5006221959
  O        50.3207164111       20.8817423270       10.4068782509
  O        48.3466323437       20.5866734110        9.3270528579
  O        49.5433219467       18.2484458799       10.0682973700
  O        12.3587313443       18.6246131505        7.9996505294
  O        48.6931186101       14.1486582335        6.7512591468
  O         8.2098138256       14.2104260382        9.3225530075
  O        10.7351723080       14.5067500988       10.6643667923
  O        12.5716989871       14.5827258514        9.3285604964
  O        22.8443256029        2.0428037935        5.4871550978
  O        21.6050466424        3.5921093539        6.5896786682
  O        42.0578542609       34.1369989288        7.9789845251
  O        37.9812988941       33.1365470500        5.5724330376
  O        39.2171916232       31.5750732751        6.6655926904
  O        20.3083382463        1.0395262836        6.5019022021
  O        38.0241717585       33.1846415329       10.4157893098
  O        39.2179803737       31.5826100312        9.3278556167
  O        40.6521193905       33.7690600069       10.0602154482
  O        18.2557940790        1.3761842183        7.9967920945
  O        44.6222234759       35.1005299924        6.7587695201
  O        24.2054194184       -0.0000505311        9.3208143515
  O        22.7530940641        2.0570198617       10.5832913871
  O        21.6244764274        3.5959667639        9.3424992105
  O        27.4617377340       18.6959016871        5.4904659838
  O        26.6928953136       16.9162150549        6.6692558732
  O        30.6301897080       19.3443465983        8.0644579655
  O        33.5351426463       16.3428788873        5.5848199302
  O        34.2652545352       18.1693662153        6.7356564667
  O        29.5342485551       17.0133955970        6.5769650966
  O        33.5474756441       16.3383653584       10.4154822271
  O        34.2936033603       18.2376882520        9.4046038479
  O        31.6472903056       18.3135763792       10.1651948001
  O        30.3207379603       15.1529887251        8.0750253571
  O        28.5481228479       21.0251188950        6.8375460478
  O        28.5165547763       20.9440909474        9.4062082507
  O        27.4600627379       18.6798107368       10.6617620003
  O        26.6914325989       16.9289998265        9.4206578002
  O        13.1464861416       18.6938912124       10.5861237531
  O        13.9182451973       16.9160729454        9.4042395350
  O        50.5956050427       19.3502552276        8.0206158820
  O        47.6824539580       16.3270955836       10.4172529938
  O        46.9500896173       18.1755677222        9.3256354689
  O        11.0690141344       17.0158327191        9.4895679556
  O        47.6744623448       16.3359968849        5.6526576536
  O        46.9253236660       18.2359714533        6.6633736347
  O        49.5686372413       18.3177834323        5.9822903201
  O        10.3184471261       15.1002254851        7.9970942995
  O        52.6707053986       21.0280247473        9.2418117043
  O        12.1467941751       20.8913749749        6.6733057969
  O        13.1050276305       18.6143367055        5.3261534323
  O        13.9559251986       16.9867902004        6.6649618736
  O        30.0085781233       14.4375037575       10.6694588187
  O        28.0828403630       14.6530487797        9.4909988412
  O        32.0728264474       16.8621928938        8.0642361105
  O        30.9616812588       20.9420463699       10.4128075596
  O        32.9422916414       20.5985425729        9.3367989089
  O        29.5635945821       17.0718519925        9.5756728126
  O        30.8462795708       20.8823129475        5.6603338286
  O        32.8664856705       20.5803656923        6.6649802810
  O        31.6127545833       18.2467465773        5.9275730796
  O        28.2596034927       18.6269912351        8.0744823846
  O        32.4929489731       14.2168277194        9.2549328635
  O        32.3991527005       14.2234322072        6.7405164735
  O        29.9035282102       14.4373586679        5.4231554003
  O        28.0471969195       14.5802517271        6.7401084712
  O        17.8891906208        1.9664689298       10.6628011589
  O        18.9561943666        3.5271040434        9.4080513603
  O        39.1685356853       34.1385804741        7.9971513301
  O        43.2801661520       33.0588661889       10.3316600977
  O        42.0342977381       31.5064609235        9.2415903651
  O        20.3173772312        1.0363586333        9.4802828196
  O        43.2760427696       33.1824662944        5.5749218997
  O        42.0051711570       31.5840810352        6.5830493587
  O        40.5789944567       33.7749305614        5.9359574466
  O        22.3671269381        1.3844191625        7.9979512974
  O        36.6727993038       35.0996623827        9.2333154958
  O        16.4456194830        0.0641545666        6.6682811460
  O        17.9363943879        2.0432125716        5.3264328554
  O        18.9189512118        3.5931072227        6.6659040911
  O        29.6903043776       18.7612456086        4.0707018455
  O        29.7391640484       18.8243492858       12.1484002241
  O        31.0222104929       16.3401812356        4.0115381818
  O        31.2099533920       16.4116793078       12.1493384058
  H        30.4993726994       16.2709695675       14.5188340020
  H        29.3204888891       18.2642333144       14.5312552429
  O        39.4568650389       35.2438180808        4.0020015193
  O        19.1413340500        0.0045215606       11.9905456659
  O        41.9694461394       35.1724188802        4.0871561844
  O        21.6912828224       -0.0694079482       11.8959205280
  O        51.3648158891       18.6143114211        4.0052860555
  O        10.7508537970       18.7472220435       11.9050528568
  O        50.0792113746       16.4127327163        4.0917527973
  O         9.5241539370       16.4831814104       11.9911950433
 Zr         9.2962817125       16.0529392937        6.1822269819
 Zr        49.8359607466       16.0069963995        9.7466251276
 Zr        22.0730692681        0.0292859268        6.1892198324
 Zr        42.4606742962       35.1530262478        9.8008547287
 Zr        29.5674040655       19.0440134430        6.2594646413
 Zr        29.5719290222       19.1603811121        9.8908442231
 Zr        11.0372026969       19.0523237547        9.8277604882
 Zr        11.0432138544       19.1551006292        6.2512559989
 Zr        31.3348062455       16.1085807583        9.8761721867
 Zr        31.3547139218       16.0203639710        6.2242237993
 Zr        18.6008409969       -0.0021171308        9.7635459921
 Zr        18.5064783991       -0.0081250078        6.2134787163
 Zr        12.3010175193       16.3234306275        7.9904021590
 Zr        48.6155129828       18.8328403220        8.0103265542
 Zr        20.3147471224        2.4729392309        7.9907398796
 Zr        40.6426198238       32.6862734708        7.9781624722
 Zr        28.3285098935       16.3259827575        8.0833651586
 Zr        32.6050872016       18.8320043323        8.0452228736
  H        31.2971974758       16.7253493624        1.6354397310
  H        30.0979081299       18.8285655143        1.6395193480
