     564
 i =      336, E =     -4680.1472382625
  C        11.8585444336       14.0533902652        5.7416504519
  C        12.4560379338       12.8904099866        5.0232909913
  C        11.7044795147       12.1718872281        4.0812268631
  C        12.2807772682       11.1096470414        3.3888610351
  C        13.6211920030       10.7394684806        3.6168650899
  C        14.3542420120       11.4426486935        4.5907122898
  C        13.7814166458       12.5076421299        5.2822713984
  C        14.2606251390        9.6487447226        2.8434927600
  C        14.2558567390        9.6565923252        1.4217949683
  C        13.7427782873       10.7587296560        0.6678600238
  C        49.1264395353       21.2334666455        5.8798097455
  C        48.5495270368       22.4012877793        5.1527321240
  C        49.2995569190       23.0686487856        4.1717657935
  C        48.7325551506       24.1076866588        3.4385014306
  C        47.4019423610       24.5091357690        3.6670165779
  C        46.6709373922       23.8601324321        4.6804015793
  C        47.2334579240       22.8153057572        5.4098097105
  C        46.7717042539       25.5868017983        2.8697262689
  C        46.7607703580       25.5571867207        1.4479736769
  C        47.2606770737       24.4420753143        0.7044944176
  C        14.8595662908        8.5701201203        0.7085420992
  C        14.8913648228        8.5967611138        3.5201086373
  C        49.1128577184       21.2034646371       10.1453396260
  C        48.5274082030       22.3647556611       10.8724915862
  C        49.2665836456       23.0255081098       11.8654149409
  C        48.6901764900       24.0600035651       12.5968803792
  C        47.3597192790       24.4566301385       12.3586477127
  C        46.6393060398       23.8116177273       11.3351969272
  C        47.2129561676       22.7757672490       10.6034173660
  C        46.7212701644       25.5316010575       13.1496534846
  C        46.7329615910       25.5279571916       14.5713540287
  C        47.2484049373       24.4287464184       15.3277354715
  C        40.6198643636       17.1050236311       15.3120055270
  C        40.6315752720       17.1255486423       12.5016419594
  C        11.8826750189       14.0863746563       10.2854677481
  C        12.4716781385       12.9102262193       10.9894753694
  C        11.7141435358       12.1775012750       11.9159385024
  C        12.2804709762       11.0949001403       12.5843432705
  C        13.6190885942       10.7206200101       12.3522054950
  C        14.3570129662       11.4355892291       11.3908926634
  C        13.7918265180       12.5169130278       10.7182187735
  C        14.2525780475        9.6238474555       13.1226917469
  C        14.2515866602        9.6439797695       14.5445524497
  C        13.7420099503       10.7530915995       15.2916013883
  C        22.5083427451        3.2431903375        5.7517920722
  C        23.2162977049        4.3485078258        5.0473145131
  C        24.2120363883        4.0689104379        4.1000142864
  C        24.8335740249        5.1089190964        3.4143030983
  C        24.4738623452        6.4494920869        3.6560189935
  C        23.5053429658        6.7207596811        4.6393697323
  C        22.8795478369        5.6826094867        5.3238396907
  C        25.0775063561        7.5557689475        2.8802100100
  C        25.0582442809        7.5457097359        1.4589533387
  C        24.3602375592        6.5447936184        0.7113436321
  C        38.2974361077       31.9272785556        5.8519776453
  C        37.5543510903       30.8388514177        5.1514488969
  C        36.5871252337       31.1467847597        4.1820037585
  C        35.9542479161       30.1298156314        3.4721761115
  C        36.2728161426       28.7777395381        3.7075510340
  C        37.2094628137       28.4772548520        4.7148265586
  C        37.8462270243       29.4932837678        5.4243719007
  C        35.6594570312       27.6908551737        2.9084307706
  C        35.6966267185       27.7073792691        1.4864343509
  C        36.4103816640       28.7074971265        0.7533673026
  C        25.6860519961        8.6137821828        0.7407746093
  C        25.6687943936        8.6325997470        3.5523949367
  C        38.3297624311       31.9598807285       10.1609761620
  C        37.6120382182       30.8873733060       10.9110993770
  C        36.6783328821       31.1983652849       11.9120164062
  C        36.0659117528       30.1828317492       12.6447817178
  C        36.3715158241       28.8282572865       12.4021427337
  C        37.2866999429       28.5272183029       11.3743164922
  C        37.9008777735       29.5393551296       10.6423941404
  C        35.7527436242       27.7312392719       13.1841986106
  C        35.7439720702       27.7281857117       14.6071556512
  C        36.4315603744       28.7185203753       15.3767327031
  C        46.1351083305       26.6206862811       15.2814668768
  C        46.0872320741       26.5798902315       12.4735801470
  C        22.4610805442        3.2538880393       10.2549985151
  C        23.1580174559        4.3612627322       10.9746232097
  C        24.1635564015        4.0728204994       11.9106980119
  C        24.7940794683        5.1019238885       12.6049797863
  C        24.4380846284        6.4471979000       12.3846565752
  C        23.4561101847        6.7291224375       11.4165986091
  C        22.8210368437        5.7002441300       10.7225973210
  C        25.0689058182        7.5434063819       13.1592926400
  C        25.0549941158        7.5384185401       14.5813690794
  C        24.3563949026        6.5427199136       15.3346644539
  C        26.5210638581       17.7970913407        5.8228060093
  C        25.2278522796       17.8589552860        5.0812347953
  C        24.9731361170       18.8924053308        4.1664401190
  C        23.7736357450       18.9248593177        3.4595466206
  C        22.7958993230       17.9291139328        3.6512188627
  C        23.0454981238       16.9166525789        4.5957863251
  C        24.2477521146       16.8778612567        5.2983398034
  C        21.5338132532       17.9328569806        2.8741720056
  C        21.5469350782       17.9416306920        1.4530557267
  C        22.7600813102       17.8414789542        0.7014714359
  C        34.4133613709       17.2248791757        5.8859048860
  C        35.7137905133       17.1659732373        5.1555405615
  C        35.9154927742       16.2016678962        4.1556516776
  C        37.1017785025       16.1798664671        3.4279724293
  C        38.1183808591       17.1225801020        3.6773898991
  C        37.9200980149       18.0652669309        4.7044358007
  C        36.7318963975       18.0910230130        5.4317425705
  C        39.3732432365       17.1267930191        2.8908746337
  C        39.3669509268       17.1371197543        1.4685004593
  C        38.1596384007       17.2656567120        0.7121325352
  C        20.3052829993       17.9656223172        0.7377725205
  C        20.3070590688       17.9202558047        3.5493300815
  C        34.4227570768       17.2119343258       10.2174980089
  C        35.7319340741       17.1305974338       10.9265839063
  C        35.9469109759       16.1619397711       11.9185815359
  C        37.1412467952       16.1426412331       12.6335761176
  C        38.1500591949       17.0923993991       12.3786591806
  C        37.9417917070       18.0331640523       11.3523547033
  C        36.7465313751       18.0565291723       10.6384671214
  C        39.4012832028       17.1149560452       13.1689834013
  C        39.3813370147       17.1318347669       14.5907803789
  C        38.1664838266       17.2612838226       15.3352752175
  C        35.1014138477       26.6527233234       15.3073247399
  C        35.1685475272       26.6587715869       12.4972934503
  C        26.5692773497       17.8296948058       10.3259388587
  C        25.2530493639       17.8918341353       11.0225787271
  C        24.9831402639       18.9194223584       11.9385907455
  C        23.7651840223       18.9551216221       12.6106262543
  C        22.7894910451       17.9642383127       12.3869498445
  C        23.0516592789       16.9627770336       11.4349680162
  C        24.2706998089       16.9243436007       10.7621551306
  C        21.5249375669       17.9549153880       13.1563094467
  C        21.5418855286       17.9515088576       14.5772384363
  C        22.7576143052       17.8459190406       15.3250515616
  C        14.0453712721       17.8340854660       10.2815222574
  C        15.3534681833       17.9044993907       10.9939357169
  C        15.6127345529       18.9249999128       11.9215000207
  C        16.8245807940       18.9575087512       12.6070720783
  C        17.8069932681       17.9720707885       12.3857345205
  C        17.5541892314       16.9774561172       11.4230488782
  C        16.3419667980       16.9409127996       10.7382827918
  C        19.0717076709       17.9608140444       13.1576806807
  C        19.0604579378       17.9582002618       14.5788597284
  C        17.8472297654       17.8566493968       15.3297140946
  C        46.8022681570       17.2171910696       10.1574581499
  C        45.5092564205       17.1502154722       10.8988883093
  C        45.3015329615       16.1674781666       11.8793308588
  C        44.1177292461       16.1436940260       12.6122369937
  C        43.1106178425       17.1028440252       12.3880063790
  C        43.3150806235       18.0643964455       11.3797510617
  C        44.4995573614       18.0918858673       10.6473868657
  C        41.8573197960       17.1116113757       13.1780525149
  C        41.8653993313       17.1119406013       14.6005151649
  C        43.0756963029       17.2028230594       15.3577164819
  C        20.3023725755       17.9693637595       15.2940097591
  C        20.2980997055       17.9393857982       12.4820532664
  C        46.7841023879       17.2320488331        5.8871098413
  C        45.4816475682       17.1271548726        5.1689283355
  C        45.2623960662       16.1269397407        4.2093748671
  C        44.0745977464       16.0991104498        3.4823610927
  C        43.0756615661       17.0687955277        3.6967726617
  C        43.2858099723       18.0395748100        4.6941541351
  C        44.4744728862       18.0734543706        5.4166522671
  C        41.8282306359       17.0899795235        2.9004970268
  C        41.8506781602       17.0994482527        1.4790264222
  C        43.0687445862       17.1941451575        0.7347691314
  C        46.1527801006       26.6370640312        0.7262138387
  C        46.1618065146       26.6559372723        3.5358459162
  C        14.0378573776       17.8272061206        5.7048494919
  C        15.3485693612       17.8940380458        4.9996040286
  C        15.6165275958       18.9185241805        4.0799204823
  C        16.8379893783       18.9555279564        3.4129291767
  C        17.8150603876       17.9667799981        3.6416746114
  C        17.5521724894       16.9669753557        4.5951846406
  C        16.3330570160       16.9299171441        5.2663813434
  C        19.0806923862       17.9521230451        2.8745276342
  C        19.0653168467       17.9529166823        1.4538162290
  C        17.8496185064       17.8540120862        0.7056963663
  C        28.8114115878       14.0847156670       10.3970830461
  C        28.2059909845       12.9046094203       11.0743985118
  C        28.9330064846       12.1562183824       12.0117738084
  C        28.3340104385       11.0810765887       12.6625968000
  C        26.9950056824       10.7302545326       12.3978585437
  C        26.2909715025       11.4555798788       11.4201833572
  C        26.8870670472       12.5317401626       10.7689354099
  C        26.3242192321        9.6524052387       13.1590074944
  C        26.3065555672        9.6810843044       14.5795826463
  C        26.8098293331       10.7941915311       15.3250001719
  C        32.1781601869       21.2322124373       10.1481939456
  C        32.7699036676       22.4009018428       10.8667472243
  C        32.0143909233       23.0878111845       11.8300840384
  C        32.5801373419       24.1298191864       12.5587791877
  C        33.9184211817       24.5149911647       12.3472936188
  C        34.6567405392       23.8472886681       11.3515334567
  C        34.0931106025       22.8000071729       10.6240238804
  C        34.5412675717       25.5924870380       13.1520547412
  C        34.5140751715       25.5692627170       14.5744260309
  C        33.9919335505       24.4587439130       15.3103565702
  C        25.6900363377        8.6060420342       15.2966827522
  C        25.6881583443        8.6030626914       12.4839763862
  C        32.0683520498       21.1935662676        5.8795482360
  C        32.6351619349       22.3622025618        5.1399998328
  C        31.8976319136       23.0148064962        4.1400223702
  C        32.4678707826       24.0565493036        3.4095697037
  C        33.7899472070       24.4767071980        3.6584043400
  C        34.5080799990       23.8383123815        4.6883104861
  C        33.9431436593       22.7932833991        5.4143622363
  C        34.4300700717       25.5624755857        2.8768135994
  C        34.4560317456       25.5546954445        1.4539782732
  C        33.9628649999       24.4523037586        0.6871521098
  C        40.6120286276       17.1030730536        0.7572934741
  C        40.5983384768       17.1201967056        3.5677834564
  C        28.7335008542       14.0636603436        5.7866103779
  C        28.1148952268       12.9190874594        5.0569792815
  C        28.8540093647       12.2003455533        4.1047643821
  C        28.2677221014       11.1451422593        3.4116450646
  C        26.9270832257       10.7816774338        3.6474374030
  C        26.2049032280       11.4851691581        4.6291162359
  C        26.7894840159       12.5421601340        5.3238790878
  C        26.2848479185        9.6922226325        2.8755682655
  C        26.2865586996        9.7020802840        1.4541724874
  C        26.7976580044       10.8054525767        0.7009229918
  C        18.1351789688        3.1807442991       10.3171864801
  C        17.4055847652        4.2778526508       11.0157233350
  C        16.3899160470        3.9992497734       11.9432210739
  C        15.7419551458        5.0390524543       12.6067567859
  C        16.0934640264        6.3828599919       12.3669675959
  C        17.0826840206        6.6526613256       11.4030936639
  C        17.7319908330        5.6154636198       10.7380044484
  C        15.4689606894        7.4904611916       13.1300118341
  C        15.4844618894        7.4898960224       14.5517398339
  C        16.1860924103        6.4963287248       15.3049121038
  C        42.9456914029       31.8593636678       10.0728068211
  C        43.6459537423       30.7716867515       10.8167323242
  C        44.5914285468       31.0929595798       11.8028681613
  C        45.1970806680       30.0873744408       12.5504963260
  C        44.8705693662       28.7343297977       12.3356268203
  C        43.9447992081       28.4200474232       11.3223468015
  C        43.3360383475       29.4252281525       10.5743264770
  C        45.4881432319       27.6550753475       13.1388540688
  C        45.4922517626       27.6807093148       14.5605414628
  C        44.8053200486       28.6888763909       15.3071447093
  C        14.8555961082        8.5624581111       15.2641049653
  C        14.8736229745        8.5621956873       12.4513913036
  C        42.9463763471       31.9614679774        5.8090204283
  C        43.6914972183       30.8853428687        5.0955514423
  C        44.6560775823       31.1912393777        4.1232324987
  C        45.2775157347       30.1716384702        3.4054842957
  C        44.9536191640       28.8213341829        3.6430445289
  C        44.0201176680       28.5236986638        4.6538116382
  C        43.3919239025       29.5404668064        5.3660277337
  C        45.5625868132       27.7239463317        2.8577604821
  C        45.5329280995       27.7173010345        1.4364715883
  C        44.8265507685       28.7074983486        0.6835364759
  C        35.0743661423       26.6438475701        0.7533004230
  C        35.0438772041       26.6180879302        3.5640919173
  C        18.1483580321        3.2467814382        5.7065438498
  C        17.4296853111        4.3435696194        4.9972051228
  C        16.4144735894        4.0522526800        4.0736474954
  C        15.7661346499        5.0828589732        3.3982477768
  C        16.1206086275        6.4281239624        3.6210217310
  C        17.1120079149        6.7115342387        4.5782435405
  C        17.7597165126        5.6826782860        5.2580697204
  C        15.4900981839        7.5237744988        2.8485471416
  C        15.4958573064        7.5070607245        1.4274241922
  C        16.1924871167        6.5052844848        0.6807236537
  H        10.6724672559       12.4663206733        3.9040121698
  H        11.6945058787       10.5514233266        2.6621200165
  H        15.3911364131       11.1677146983        4.7727426056
  H        14.3507293174       13.0704893607        6.0181434855
  H        13.3760050806       11.6309886130        1.2011006410
  H        50.3223328065       22.7487536489        3.9871653582
  H        49.3189976566       24.6230307491        2.6809435628
  H        45.6413536812       24.1606915093        4.8633982720
  H        46.6624235306       22.2899565704        6.1718065208
  H        47.6290918701       23.5756596600        1.2462060426
  H        14.8717386421        8.5880438736        4.6084089367
  H        50.2866574643       22.7027317694       12.0602788959
  H        49.2685159764       24.5755254370       13.3603771908
  H        45.6098450862       24.1087092987       11.1462150391
  H        46.6521211585       22.2535230469        9.8319284460
  H        47.6070861076       23.5515784870       14.7968554333
  H        40.6356953588       17.0903285208       11.4138537643
  H        48.6869887357       14.0950966870        7.7999807111
  H        10.6808507291       12.4670473587       12.0936015734
  H        11.6886704902       10.5248836130       13.2973445162
  H        15.3922962559       11.1572368895       11.2047038169
  H        14.3641565622       13.0858861677        9.9893420143
  H        13.3752597934       11.6217181765       14.7529055289
  H        47.9300058187       14.2185025579        9.7107205215
  H        47.7799466924       14.3738634942        6.4952714076
  H        49.0822047220       18.5519238142       10.8670340283
  H        10.4155941179       14.1342993922        7.9987787192
  H        24.4766261976        3.0306932737        3.9123611148
  H        25.6069595741        4.8933416293        2.6802999889
  H        23.2207590230        7.7532488610        4.8311468156
  H        22.1097182673        5.8810487031        6.0655145994
  H        23.7961057389        5.7891497836        1.2502321259
  H        36.3559278475       32.1911674694        3.9861752292
  H        35.2052947935       30.3744067982        2.7220938333
  H        37.4640983871       27.4367605666        4.9058087436
  H        38.5945701059       29.2666371143        6.1802145400
  H        36.9733768619       29.4561400279        1.3030537768
  H        25.6974316194        8.6182224264        4.6404163739
  H        36.4511929164       32.2430160312       12.1124937410
  H        35.3353164179       30.4324750647       13.4110671644
  H        37.5376558024       27.4866377935       11.1793194977
  H        38.6274588367       29.3089217255        9.8669545050
  H        37.0115845619       29.4753637915       14.8564551650
  H        46.1085997660       26.5872078802       11.3855443486
  H        44.6681736476       35.1161195539        7.8140162942
  H        24.4406680292        3.0340812155       12.0754363327
  H        25.5771244216        4.8733756445       13.3248107152
  H        23.1712003696        7.7641459063       11.2390261442
  H        22.0464863385        5.9128892654        9.9893724729
  H        23.7887439112        5.7859938986       14.8010025318
  H        44.9535326093       34.3898966655        9.6947754922
  H        44.9017280257       34.2067516830        6.4906513855
  H        40.6658737126       33.2086108990       10.8529887594
  H        23.1501211905        1.9575164188        8.0043621646
  H        25.7237004924       19.6672265660        4.0282298787
  H        23.5768038200       19.7300904670        2.7549749085
  H        22.2982917233       16.1405116049        4.7480923253
  H        24.4560683945       16.0850714305        6.0129099969
  H        23.6982910981       17.7272501188        1.2368914532
  H        35.1234182286       15.4838038257        3.9561783749
  H        37.2560998960       15.4244435589        2.6606624099
  H        38.6962750595       18.8016796909        4.9023357479
  H        36.5632450808       18.8345094908        6.2074018724
  H        37.2219423716       17.4010280172        1.2435378726
  H        20.3073350168       17.9374843517        4.6377069091
  H        35.1590577043       15.4420132888       12.1271524297
  H        37.3056961528       15.3882169199       13.3997418117
  H        38.7135337721       18.7726527856       11.1488357690
  H        36.5659659075       18.8012624554        9.8668583720
  H        37.2337539154       17.3925550021       14.7943425367
  H        35.1555586502       26.6809515559       11.4092114209
  H        28.4971229779       21.0734966551        7.8928872874
  H        25.7399562052       19.6820964470       12.1057218398
  H        23.5542306800       19.7538687380       13.3183917450
  H        22.3038065042       16.1925995321       11.2577286050
  H        24.4916812644       16.1397374675       10.0425097657
  H        23.6941663940       17.7350324677       14.7863883717
  H        29.0335124270       21.7039207954        9.7271091048
  H        29.2166451679       21.6807644297        6.5664282869
  H        32.0940289376       18.5498811528       10.9958775684
  H        27.3717064737       19.0223089647        8.0793685703
  H        14.8535081914       19.6853122133       12.0901809114
  H        17.0247721768       19.7519330971       13.3228363571
  H        18.3054309152       16.2106689054       11.2453638628
  H        16.1308883687       16.1606556572       10.0109309724
  H        16.9086583849       17.7466530197       14.7945247553
  H        46.0851602403       15.4356393576       12.0608320853
  H        43.9588150478       15.3738907543       13.3642179429
  H        42.5462202551       18.8132510845       11.2010805262
  H        44.6724929630       18.8491883002        9.8862764950
  H        44.0172742107       17.3115866409       14.8271485319
  H        20.2982771018       17.9629494614       11.3937859504
  H        46.0383851493       15.3850711769        4.0349461843
  H        43.9080380522       15.3220352111        2.7395017964
  H        42.5202690788       18.7932271996        4.8666274935
  H        44.6566525127       18.8418345194        6.1639744928
  H        44.0050705204       17.2952419394        1.2759472371
  H        46.1985812446       26.6824233375        4.6232928417
  H        52.7411186626       21.0625501675        8.1945732405
  H        14.8586600846       19.6794050270        3.9073887241
  H        17.0497247870       19.7536258507        2.7046652281
  H        18.3001194478       16.1975249991        4.7750276000
  H        16.1120792811       16.1485082721        5.9894027507
  H        16.9128572273       17.7419793790        1.2434320852
  H        52.3219802828       21.6736064573        6.2949797824
  H        52.0131759611       21.7023746086        9.4952829197
  H        49.0671539766       18.6077824700        5.2042527398
  H        13.2470106485       19.0164535012        7.9751692093
  H        29.9643590972       12.4325853114       12.2179385462
  H        28.8971833088       10.5009251492       13.3903596863
  H        25.2566420298       11.1925614134       11.2084859917
  H        26.3402074786       13.1153461263       10.0325835475
  H        27.1788196049       11.6611633141       14.7850432276
  H        30.9861199836       22.7799345864       12.0030462122
  H        31.9874337082       24.6601679203       13.3009037209
  H        35.6925170582       24.1337205169       11.1808526173
  H        34.6704434681       22.2612556326        9.8760981123
  H        33.6394302664       23.5892236411       14.7629652181
  H        25.7208949272        8.5831211028       11.3960804716
  H        30.8814290181       22.6835763929        3.9379004767
  H        31.8873490307       24.5611256600        2.6402543164
  H        35.5314345368       24.1488414122        4.8887817582
  H        34.5065749085       22.2798197456        6.1898131737
  H        33.5880802099       23.5776598692        1.2112738416
  H        40.5934049765       17.0852784284        4.6555766352
  H        32.5065246788       14.1558943193        8.2685714581
  H        29.8910124268       12.4770721268        3.9295375125
  H        28.8467399816       10.5834292430        2.6818498870
  H        25.1677402621       11.2151004016        4.8170117281
  H        26.2298526602       13.1027681815        6.0689740228
  H        27.1561154373       11.6812799966        1.2339400980
  H        33.2971374459       14.2296527061        6.3756793502
  H        33.4080242213       14.4140827727        9.5894523598
  H        32.0731339563       18.5153599475        5.1731559047
  H        30.1997297379       14.1461260808        8.0848040409
  H        16.1182305581        2.9626730349       12.1297376299
  H        14.9525714152        4.8194868122       13.3224389621
  H        17.3647457455        7.6856388282       11.2098805659
  H        18.5139225634        5.8182968751       10.0100664109
  H        16.7525909641        5.7389539084       14.7713867249
  H        44.8277622066       32.1400278407       11.9770329026
  H        45.9368933093       30.3410723129       13.3065061265
  H        43.6820419108       27.3779928201       11.1522538299
  H        42.5995222089       29.1898869087        9.8095723947
  H        44.2298693868       29.4365588091       14.7688305817
  H        14.8497007790        8.5453069803       11.3631539885
  H        44.8997005312       32.2339061738        3.9318506958
  H        46.0244062377       30.4128182598        2.6522224185
  H        43.7630162554       27.4839857362        4.8452701332
  H        42.6453928003       29.3176585963        6.1244322229
  H        44.2680401076       29.4703960423        1.2180978540
  H        34.9981644667       26.6289041238        4.6515055141
  H        36.6052283902       35.1339120997        8.1806329895
  H        16.1434968508        3.0126487006        3.9039007865
  H        14.9737983430        4.8559362078        2.6882164639
  H        17.3953972490        7.7470256018        4.7551921462
  H        18.5425467376        5.8931777626        5.9828955990
  H        16.7639836214        5.7550827541        1.2191288793
  H        36.2787908157       34.4820599871        6.2733643892
  H        36.3808013482       34.2089916238        9.4996058674
  H        40.5787174199       33.2014976112        5.1541323024
  H        17.4707210308        1.9470531939        7.9739704355
  H        28.9956207847       19.3172848102       12.5549864393
  H        28.6431151316       18.7583588692        3.8220174720
  H        30.6976190531       15.4958496029        3.7827608721
  H        31.2781803470       15.6099986369       12.5809014155
  H        18.8535160159        0.8690478168       12.3350589968
  H        40.5281762481       35.2290086302        3.9521774157
  H        42.3231990657       34.4181743997        3.5908760874
  H        22.0875392188        0.6920508872       12.3514407160
  H        11.5965663804       18.7127338716       12.3826676639
  H        52.2643317300       18.4317081149        3.6772897499
  H        49.2557731317       16.4762911832        3.5840172302
  H        10.1501832947       15.7983605190       12.2927249486
  H        50.8497379914       17.6924235518        3.9540431413
  H        10.0458463624       17.3947726594       12.0519664588
  H        20.2148668252        0.0021290688       12.0419536675
  H        39.1836101452       36.1242913524        3.6863699826
 Ni        30.4398552478       17.6164500740        2.7466398295
 Ni        30.8158512031       16.6270827419        0.1673050963
 Ni        29.6400360434       18.4722863581        0.3298180149
 Ni        30.3106859425       17.5976898330       13.6561897933
  O        10.6498913244       14.3651766802        5.4857961563
  O        12.6131287563       14.6574168616        6.5838323243
  O        49.1477259481       16.8459438007        7.9897328967
  O        50.3500074383       20.9365165250        5.6483030463
  O        48.3484441599       20.5932642038        6.6659849725
  O        11.0508977467       17.0540265795        6.5005568950
  O        50.3206838824       20.8817781523       10.4068959499
  O        48.3466303773       20.5866900676        9.3270574808
  O        49.5433786046       18.2484685384       10.0683937380
  O        12.3586704426       18.6246038277        7.9997181821
  O        48.6931498346       14.1486020342        6.7512582364
  O         8.2098025070       14.2104075869        9.3225689206
  O        10.7352164162       14.5067732080       10.6643564430
  O        12.5717276826       14.5826666805        9.3285781521
  O        22.8441409827        2.0426638870        5.4874268979
  O        21.6042260996        3.5915645222        6.5904823300
  O        42.0578708991       34.1369152140        7.9788731939
  O        37.9812555635       33.1361891913        5.5723221404
  O        39.2171881821       31.5749523948        6.6655770751
  O        20.3083026713        1.0393623273        6.5018359261
  O        38.0240788962       33.1843681277       10.4159302800
  O        39.2179337140       31.5824962845        9.3279444751
  O        40.6521312202       33.7690180602       10.0601719769
  O        18.2555999669        1.3761424290        7.9967678973
  O        44.6222429487       35.1005111790        6.7587636119
  O        24.2054375543       -0.0000950188        9.3207859884
  O        22.7527195168        2.0563758718       10.5829871837
  O        21.6237939639        3.5951575769        9.3414678285
  O        27.3976721227       18.7002153852        5.5662754051
  O        26.6572662997       16.8541619873        6.6709908450
  O        30.6249507463       19.3449738122        8.0730535244
  O        33.5376766674       16.3425082956        5.5888465248
  O        34.2644135690       18.1705863507        6.7385214078
  O        29.5277844160       17.0055684765        6.5837961524
  O        33.5390041876       16.3267746633       10.4923812153
  O        34.2642041329       18.1805607411        9.4040115667
  O        31.6439800597       18.3149736490       10.1671544294
  O        30.2974779017       15.1119759996        8.0866520899
  O        28.5471569891       21.0254379588        6.8394764213
  O        28.5168044039       20.9445281305        9.4073827318
  O        27.4600632548       18.6804568398       10.6602324449
  O        26.6918311690       16.9275123819        9.4206230209
  O        13.1459003686       18.6941481811       10.5857055292
  O        13.9177938778       16.9159945010        9.4038724342
  O        50.5957018677       19.3503109216        8.0207433628
  O        47.6819910325       16.3272072495       10.4174087664
  O        46.9507830257       18.1757827700        9.3251647347
  O        11.0687602665       17.0159473578        9.4896017472
  O        47.6748042643       16.3358849477        5.6527400956
  O        46.9258943842       18.2359388117        6.6636949191
  O        49.5686880748       18.3177927139        5.9822463890
  O        10.3185201251       15.1001823312        7.9970828870
  O        52.6706280949       21.0279977150        9.2418025136
  O        12.1468118919       20.8914683725        6.6733181457
  O        13.1034517399       18.6143885608        5.3264983282
  O        13.9554938456       16.9866835699        6.6653486265
  O        29.9947298541       14.4431621045       10.7369903305
  O        28.0893129675       14.6490046410        9.5029574299
  O        32.0678607667       16.8510665997        8.0846050428
  O        30.9615641936       20.9423410324       10.4132756720
  O        32.9432646137       20.5959656081        9.3382638526
  O        29.5620534856       17.0706193438        9.5777050096
  O        30.8428646956       20.8767395018        5.6587597752
  O        32.8646024894       20.5790191744        6.6664110798
  O        31.6101699197       18.2468261338        5.9839477850
  O        28.2564947723       18.6218529904        8.0784966851
  O        32.4913679350       14.2154969241        9.3234739588
  O        32.4013838163       14.2187669417        6.7520541121
  O        29.9032733989       14.4362294310        5.4240936953
  O        28.0464098330       14.5769426577        6.7393285836
  O        17.8891236421        1.9664090036       10.6628159221
  O        18.9560752919        3.5270836732        9.4080771588
  O        39.1685388845       34.1385904051        7.9971175854
  O        43.2801490398       33.0587788994       10.3317144672
  O        42.0342700686       31.5064171886        9.2415680541
  O        20.3172540816        1.0362089951        9.4803999557
  O        43.2760516106       33.1824594231        5.5748902596
  O        42.0051634516       31.5840410331        6.5830084322
  O        40.5789380122       33.7749592823        5.9356962051
  O        22.3670348940        1.3842713722        7.9978721473
  O        36.6728001625       35.0996240262        9.2333108504
  O        16.4456362150        0.0640919199        6.6682765167
  O        17.9363703171        2.0431536255        5.3263445406
  O        18.9187878403        3.5931313108        6.6658516758
  O        29.5772683537       18.6899191148        4.0921948594
  O        29.7413265049       18.8287008198       12.1634820981
  O        31.0909860685       16.3390460177        4.0761320060
  O        31.2518845211       16.4849732092       12.1560127890
  H        30.7179196235       16.2418230205       14.6231947822
  H        29.3637511514       18.5734128190       14.7446351135
  O        39.4568280521       35.2437137136        4.0019927215
  O        19.1414434381        0.0045223264       11.9905115329
  O        41.9695251135       35.1726386564        4.0871265983
  O        21.6912222170       -0.0694514173       11.8958861382
  O        51.3643942389       18.6144224678        4.0052254007
  O        10.7508298905       18.7472485465       11.9050722208
  O        50.0800275350       16.4127166048        4.0916749108
  O         9.5242659908       16.4831543486       11.9912066025
 Zr         9.2964119717       16.0529119606        6.1822453692
 Zr        49.8357824919       16.0069894153        9.7466636654
 Zr        22.0731912245        0.0293099663        6.1891357131
 Zr        42.4607411838       35.1528975334        9.8007186372
 Zr        29.5498792350       19.0346461918        6.2866586912
 Zr        29.5656777919       19.1583139815        9.8966353381
 Zr        11.0371487588       19.0524434229        9.8278050384
 Zr        11.0430410956       19.1552458927        6.2512501109
 Zr        31.3173979418       16.1103763175        9.9258177618
 Zr        31.3625806886       16.0038819609        6.2679829546
 Zr        18.6008551982       -0.0020976816        9.7636467606
 Zr        18.5065266128       -0.0081371749        6.2134047982
 Zr        12.3006678651       16.3233501219        7.9905808389
 Zr        48.6157935019       18.8328750080        8.0102710163
 Zr        20.3142558277        2.4726682679        7.9906174012
 Zr        40.6426921261       32.6863927014        7.9781022670
 Zr        28.3227741475       16.3074746438        8.0866470763
 Zr        32.6015361600       18.8198000783        8.0557142169
  H        31.2473251084       16.7002785636        1.7337939623
  H        30.0902604370       18.8390924754        1.8284325548
