     560
 i =       90, E =     -4677.7220867867
  C        11.8585507092       14.0534566090        5.7414951437
  C        12.4558828915       12.8903862104        5.0233203944
  C        11.7042432116       12.1716839589        4.0814399865
  C        12.2805006734       11.1093772812        3.3891518653
  C        13.6210029672       10.7393208582        3.6169525694
  C        14.3540971167       11.4426511938        4.5906671326
  C        13.7813204882       12.5077012803        5.2821514075
  C        14.2603884607        9.6485637233        2.8435613877
  C        14.2554806064        9.6563859844        1.4218535522
  C        13.7422616385       10.7584617007        0.6679158864
  C        49.1266035624       21.2333877592        5.8797100537
  C        48.5498250824       22.4012846847        5.1527307355
  C        49.2997709691       23.0684536678        4.1715500210
  C        48.7328183205       24.1075548098        3.4383401267
  C        47.4022974861       24.5092419370        3.6670413239
  C        46.6714353427       23.8605367850        4.6807395548
  C        47.2339003320       22.8156493959        5.4100953441
  C        46.7720588886       25.5868949807        2.8697380863
  C        46.7610445941       25.5572360764        1.4479814550
  C        47.2609924136       24.4421435395        0.7044987614
  C        14.8592799760        8.5699706440        0.7085777712
  C        14.8913100720        8.5966722133        3.5201896440
  C        49.1129675608       21.2035322404       10.1451755794
  C        48.5275293365       22.3647333986       10.8724010619
  C        49.2666465156       23.0252945632       11.8655127656
  C        48.6902911415       24.0597779063       12.5970242441
  C        47.3599793682       24.4567878887       12.3585785428
  C        46.6397426280       23.8121456100       11.3347539092
  C        47.2133261783       22.7763101374       10.6029050659
  C        46.7215375764       25.5317205291       13.1496226125
  C        46.7332428249       25.5280056395       14.5713260386
  C        47.2486716983       24.4288089016       15.3277366642
  C        40.6163656306       17.1030756544       15.3163683306
  C        40.6354166701       17.1497882298       12.5058855667
  C        11.8827519699       14.0863107090       10.2854544551
  C        12.4717193910       12.9102600004       10.9894673612
  C        11.7141502068       12.1775460172       11.9159341892
  C        12.2804329347       11.0949353245       12.5843415649
  C        13.6190406557       10.7205706250       12.3522574348
  C        14.3569709044       11.4355426884       11.3909588609
  C        13.7918590990       12.5168625682       10.7182570964
  C        14.2524562965        9.6237669368       13.1227272465
  C        14.2512939373        9.6438426306       14.5445740055
  C        13.7415241183       10.7528290716       15.2916595162
  C        22.5062759618        3.2429671836        5.7485654679
  C        23.2093369098        4.3468579536        5.0371490540
  C        24.2073123680        4.0655272806        4.0925996973
  C        24.8273213929        5.1037736686        3.4027565223
  C        24.4638738971        6.4445485428        3.6374824910
  C        23.4907479068        6.7175705103        4.6159143780
  C        22.8669768115        5.6812781914        5.3049503809
  C        25.0711205482        7.5502275479        2.8636295433
  C        25.0639793831        7.5400477600        1.4424599558
  C        24.3725619334        6.5382733202        0.6904488015
  C        38.3013453044       31.9262778901        5.8473157891
  C        37.5694518206       30.8365890332        5.1362689451
  C        36.6073228987       31.1419297119        4.1608751577
  C        35.9847360711       30.1237605645        3.4430836555
  C        36.3075131359       28.7723876522        3.6774977894
  C        37.2410373020       28.4745572616        4.6886423986
  C        37.8677668781       29.4916112126        5.4055070218
  C        35.6980555955       27.6820721129        2.8797346041
  C        35.7269918410       27.6969395850        1.4574962767
  C        36.4324960305       28.6988924109        0.7194101056
  C        25.6960372057        8.6091189914        0.7292060230
  C        25.6537710070        8.6287642463        3.5401086886
  C        38.3254046439       31.9606273764       10.1549868886
  C        37.6000004872       30.8872056204       10.8951935429
  C        36.6675648549       31.1962452860       11.8976682487
  C        36.0518932565       30.1785062446       12.6242169019
  C        36.3523911074       28.8246259042       12.3723705406
  C        37.2617041944       28.5256642250       11.3388795370
  C        37.8793792508       29.5399636892       10.6132195801
  C        35.7399920018       27.7260190332       13.1563020338
  C        35.7482354285       27.7195087112       14.5789336005
  C        36.4420849659       28.7100352576       15.3425398525
  C        46.1352963101       26.6206672237       15.2814674901
  C        46.0875172413       26.5800465725       12.4735797476
  C        22.4656214126        3.2548489348       10.2528635014
  C        23.1721726915        4.3613654684       10.9657001874
  C        24.1828695937        4.0710290898       11.8959662751
  C        24.8212931106        5.0987742150       12.5854883458
  C        24.4685865321        6.4453642158       12.3671580719
  C        23.4825966412        6.7291417709       11.4036611033
  C        22.8398725553        5.7016739304       10.7139673432
  C        25.1013939155        7.5399800255       13.1440118729
  C        25.0799901029        7.5341695928       14.5660328343
  C        24.3771994833        6.5375396103       15.3140374746
  C        26.5567183242       17.8292994889        5.7879892992
  C        25.2588555218       17.8885167212        5.0598923169
  C        25.0076372944       18.9034358293        4.1233997595
  C        23.8003893007       18.9338384163        3.4300527687
  C        22.8134883265       17.9529998707        3.6521767344
  C        23.0611755392       16.9615390458        4.6199019597
  C        24.2695548972       16.9249386264        5.3114740994
  C        21.5479569814       17.9485394857        2.8803586663
  C        21.5569440515       17.9471341942        1.4584368356
  C        22.7673022860       17.8396785361        0.7030550988
  C        34.4191113314       17.2169261268        5.9126812025
  C        35.7112982769       17.1502324826        5.1731324053
  C        35.9015913957       16.1867857639        4.1699369160
  C        37.0846879811       16.1603042595        3.4362144561
  C        38.1079034215       17.0974104627        3.6812751233
  C        37.9186131913       18.0406411135        4.7100991090
  C        36.7348765055       18.0716121693        5.4434763764
  C        39.3623766974       17.1002939856        2.8929813100
  C        39.3578718115       17.1134380077        1.4702690481
  C        38.1510290036       17.2321722824        0.7112017279
  C        20.3129513165       17.9672034629        0.7465949629
  C        20.3224184387       17.9379026051        3.5591885166
  C        34.4487851103       17.1887572252       10.1754567800
  C        35.7526847264       17.1170857478       10.8938339162
  C        35.9903226801       16.1194537371       11.8525225242
  C        37.1747288173       16.1151571760       12.5844594895
  C        38.1560034846       17.1033314867       12.3737592901
  C        37.9277520278       18.0741307344       11.3801139232
  C        36.7390510437       18.0872659689       10.6549227757
  C        39.4040917497       17.1277996163       13.1705964363
  C        39.3793187819       17.1266790331       14.5921929932
  C        38.1609828850       17.2351584018       15.3341127996
  C        35.1170166969       26.6403898970       15.2830455183
  C        35.1487151126       26.6553702019       12.4735056451
  C        26.5627238828       17.8279743856       10.3232975238
  C        25.2478759695       17.8857382143       11.0201853808
  C        24.9715245768       18.9198570906       11.9275081948
  C        23.7546107647       18.9520641492       12.6016711803
  C        22.7861591413       17.9516957867       12.3890588745
  C        23.0549172423       16.9426635128       11.4467678026
  C        24.2732800092       16.9067402517       10.7723461775
  C        21.5226294431       17.9421708520       13.1611505990
  C        21.5432146532       17.9435161231       14.5821015082
  C        22.7607830748       17.8384987541       15.3265623444
  C        14.0451676460       17.8325543553       10.2836217041
  C        15.3514413900       17.8990021129       11.0005273011
  C        15.6095360714       18.9155400752       11.9329105448
  C        16.8198881323       18.9447842825       12.6215999202
  C        17.8029769925       17.9601481692       12.3986933040
  C        17.5507753265       16.9688589818       11.4321848323
  C        16.3399757963       16.9353898333       10.7446053460
  C        19.0691010724       17.9488326498       13.1688118579
  C        19.0618852266       17.9509502306       14.5903358947
  C        17.8512409056       17.8508331488       15.3455901515
  C        46.8031988955       17.2188594774       10.1591747666
  C        45.5118617175       17.1575685313       10.9047395426
  C        45.3029158239       16.1785277622       11.8886043802
  C        44.1199858991       16.1600716223       12.6233397726
  C        43.1145865906       17.1208724971       12.3974315434
  C        43.3210556185       18.0797833245       11.3870411863
  C        44.5045500324       18.1018216398       10.6529101305
  C        41.8597842093       17.1302825240       13.1852508839
  C        41.8635682050       17.1210772551       14.6077298667
  C        43.0718251755       17.2134106690       15.3680025007
  C        20.3057446611       17.9645861140       15.3024444157
  C        20.2941312707       17.9246406468       12.4900711877
  C        46.7822978845       17.2309374118        5.8877281496
  C        45.4774393313       17.1223645886        5.1721872420
  C        45.2583915573       16.1215579571        4.2130057380
  C        44.0689516590       16.0900560608        3.4882852592
  C        43.0668982529       17.0563378004        3.7043547777
  C        43.2765479286       18.0272116447        4.7018667831
  C        44.4672519048       18.0651328844        5.4215982383
  C        41.8187873464       17.0746632401        2.9072737052
  C        41.8426911780       17.0910354180        1.4858094928
  C        43.0617962239       17.1966852433        0.7447977434
  C        46.1530221986       26.6370969921        0.7262204929
  C        46.1620840810       26.6560121742        3.5358527942
  C        14.0404302465       17.8288968268        5.7061808912
  C        15.3546673948       17.8997935001        5.0060575741
  C        15.6243087073       18.9244732859        4.0868431787
  C        16.8482851396       18.9641393682        3.4240436043
  C        17.8275593811       17.9779756157        3.6557506369
  C        17.5634528627       16.9788859366        4.6098497555
  C        16.3416839978       16.9391138359        5.2767798349
  C        19.0937717659       17.9632722563        2.8878099262
  C        19.0751147551       17.9570999672        1.4667141727
  C        17.8577203525       17.8536740158        0.7217906121
  C        28.8041162206       14.0842860933       10.3591332225
  C        28.2123607397       12.9060726491       11.0476730752
  C        28.9407693743       12.1881816535       12.0080173146
  C        28.3515302876       11.1118894449       12.6669912623
  C        27.0224145167       10.7319738332       12.3901869777
  C        26.3175842171       11.4317286773       11.3938483523
  C        26.9026951771       12.5078548072       10.7335088477
  C        26.3565656056        9.6509879058       13.1520477223
  C        26.3296169039        9.6790828396       14.5728188760
  C        26.8247200562       10.7929949198       15.3225302774
  C        32.1757528137       21.2439759577       10.1004785932
  C        32.7622350593       22.4080171579       10.8263609712
  C        32.0156848337       23.0599570436       11.8207245460
  C        32.5812163588       24.0959429890       12.5589607615
  C        33.9083782067       24.5079719693       12.3269378935
  C        34.6368667159       23.8710688329       11.3034651929
  C        34.0754560254       22.8295370757       10.5670376018
  C        34.5336714961       25.5838442177       13.1319145962
  C        34.5265045579       25.5553706613       14.5544806250
  C        34.0234162895       24.4385985785       15.2936896456
  C        25.7102786434        8.6020429995       15.2851998751
  C        25.7251738192        8.5999641434       12.4735531790
  C        32.0783460860       21.1938670263        5.8435285863
  C        32.6601935092       22.3579837973        5.1123601368
  C        31.9358768625       23.0040451042        4.0982059546
  C        32.5137934869       24.0447164834        3.3740455237
  C        33.8318469513       24.4675860926        3.6391618190
  C        34.5366173664       23.8355689769        4.6823446891
  C        33.9632234364       22.7926432046        5.4052237723
  C        34.4758182070       25.5492961386        2.8564639907
  C        34.4965322785       25.5381978210        1.4335457185
  C        34.0078385458       24.4310581460        0.6707014106
  C        40.6051633644       17.0914089941        0.7617019152
  C        40.5871731981       17.0970147604        3.5717745184
  C        28.6601431018       14.0619416235        5.8229604476
  C        28.0587682072       12.9169545596        5.0831786766
  C        28.8140585284       12.2070435022        4.1368747702
  C        28.2415983672       11.1535491406        3.4298984083
  C        26.9007995407       10.7807837748        3.6489825512
  C        26.1628395279       11.4751262657        4.6258683265
  C        26.7324150597       12.5314604488        5.3333691122
  C        26.2727553987        9.6897304215        2.8683205384
  C        26.2884828365        9.6989806090        1.4471074764
  C        26.8030182778       10.8035467321        0.6983293698
  C        18.1353353059        3.1808541288       10.3171342673
  C        17.4056676367        4.2779732171       11.0156524551
  C        16.3897502793        3.9993641651       11.9428728177
  C        15.7417325883        5.0391588796       12.6063880234
  C        16.0935534408        6.3829357723       12.3669529045
  C        17.0831702315        6.6527440576       11.4035143532
  C        17.7325394225        5.6155621669       10.7384598329
  C        15.4690014530        7.4904832095       13.1300552013
  C        15.4842823174        7.4898445049       14.5517733400
  C        16.1859279281        6.4962779888       15.3049166276
  C        42.9457552630       31.8594497633       10.0727464174
  C        43.6459691192       30.7717353792       10.8168399193
  C        44.5916888551       31.0930354972       11.8027254200
  C        45.1972759871       30.0874862814       12.5504795660
  C        44.8708084369       28.7344420337       12.3356255013
  C        43.9447847527       28.4201331034       11.3225960703
  C        43.3360759575       29.4252762010       10.5744662993
  C        45.4883590481       27.6551728190       13.1388767224
  C        45.4924714196       27.6807350795       14.5605682281
  C        44.8054732538       28.6888630069       15.3071597807
  C        14.8553166712        8.5623439752       15.2641376604
  C        14.8736683018        8.5622071117       12.4514643815
  C        42.9466906939       31.9615642569        5.8093173462
  C        43.6913387002       30.8853814101        5.0952462852
  C        44.6563583264       31.1912715119        4.1233783870
  C        45.2777568081       30.1716701941        3.4055600172
  C        44.9537293262       28.8213944201        3.6430297253
  C        44.0200087798       28.5237308092        4.6535782510
  C        43.3918770617       29.5405106600        5.3658563835
  C        45.5627635176       27.7239789498        2.8577942031
  C        45.5330704530       27.7172668761        1.4365005937
  C        44.8267156848       28.7074716731        0.6835505641
  C        35.1041189957       26.6303174767        0.7290138907
  C        35.0890037288       26.6079397804        3.5394396153
  C        18.1485795150        3.2467362362        5.7065746974
  C        17.4297641410        4.3435438319        4.9973228938
  C        16.4144904992        4.0522252230        4.0738588984
  C        15.7659959198        5.0827991651        3.3985348097
  C        16.1207319459        6.4280506726        3.6210022039
  C        17.1122941532        6.7115024416        4.5780444344
  C        17.7600999727        5.6826352142        5.2577661947
  C        15.4900400856        7.5236877030        2.8485943171
  C        15.4956801647        7.5069586530        1.4274511119
  C        16.1923078510        6.5051789536        0.6807309045
  H        10.6721759685       12.4659604515        3.9043208272
  H        11.6941855165       10.5510295438        2.6625329029
  H        15.3910397726       11.1678120500        4.7725388752
  H        14.3507596187       13.0706245453        6.0178404737
  H        13.3753995243       11.6306734549        1.2011821720
  H        50.3224613299       22.7483864299        3.9867700679
  H        49.3192375238       24.6227324785        2.6806520092
  H        45.6419827716       24.1614014925        4.8639898339
  H        46.6629441700       22.2905433980        6.1723240192
  H        47.6294904652       23.5757429596        1.2461717978
  H        14.8718345411        8.5879768694        4.6085009966
  H        50.2865883885       22.7022547613       12.0606295035
  H        49.2685967010       24.5750729491       13.3606984930
  H        45.6104516270       24.1096403908       11.1454770800
  H        46.6525844981       22.2543984791        9.8311163791
  H        47.6074234185       23.5516652468       14.7968666201
  H        40.6418059308       17.1259892616       11.4177906246
  H        48.6869440553       14.0951245719        7.7999667623
  H        10.6808508451       12.4670679664       12.0935849014
  H        11.6885839726       10.5248905899       13.2972683617
  H        15.3922146844       11.1571427435       11.2047469775
  H        14.3642430648       13.0857794524        9.9894076356
  H        13.3747416116       11.6214694945       14.7530380040
  H        47.9301478514       14.2181541830        9.7110238584
  H        47.7799206955       14.3736849130        6.4951928639
  H        49.0831131629       18.5523533276       10.8671478897
  H        10.4158660983       14.1343241513        7.9987964572
  H        24.4757079166        3.0272106940        3.9110394668
  H        25.6036719467        4.8866882013        2.6723151308
  H        23.2025851169        7.7501750300        4.8015583085
  H        22.0949882028        5.8813972589        6.0439037863
  H        23.8059555649        5.7818438400        1.2256571700
  H        36.3712797453       32.1856263684        3.9669870250
  H        35.2386418728       30.3671042044        2.6897626306
  H        37.5000380239       27.4349147509        4.8783772633
  H        38.6128308664       29.2664643134        6.1650287994
  H        36.9982259633       29.4486686562        1.2648160942
  H        25.6726274307        8.6151822124        4.6283394296
  H        36.4466777797       32.2406515840       12.1062162850
  H        35.3243353741       30.4256251716       13.3941899076
  H        37.5068086454       27.4851623204       11.1362031472
  H        38.6035641789       29.3121342743        9.8348033397
  H        37.0161213387       29.4679721025       14.8173241181
  H        46.1089529514       26.5874905849       11.3855460516
  H        44.6682357626       35.1161759575        7.8140785180
  H        24.4572514760        3.0315716759       12.0608583056
  H        25.6070454053        4.8676803084       13.3015859777
  H        23.1997601677        7.7648492360       11.2267654430
  H        22.0620320116        5.9170539081        9.9850154752
  H        23.8134770564        5.7810173951       14.7760453316
  H        44.9536307381       34.3899551182        9.6948192683
  H        44.9018624934       34.2068506472        6.4907031067
  H        40.6651017711       33.2084233060       10.8527573495
  H        23.1501887916        1.9578386811        8.0031756657
  H        25.7648943475       19.6660242881        3.9560316994
  H        23.6062733065       19.7250438714        2.7092239624
  H        22.3084185490       16.1965204069        4.7977334766
  H        24.4760935055       16.1476158305        6.0432980195
  H        23.7076989158       17.7242455227        1.2342379302
  H        35.1034913724       15.4753052458        3.9700006257
  H        37.2295323590       15.4052190974        2.6667484297
  H        38.6987385778       18.7738768366        4.9039170724
  H        36.5746017127       18.8165719901        6.2194224017
  H        37.2097264695       17.3529747158        1.2397996642
  H        20.3254999204       17.9621067056        4.6474711654
  H        35.2334658742       15.3569161655       12.0213693249
  H        37.3537054530       15.3406354175       13.3270330456
  H        38.6783213993       18.8435669700       11.2112982196
  H        36.5421830116       18.8562469487        9.9115709862
  H        37.2271161617       17.3562153222       14.7923480471
  H        35.1213663468       26.6821600609       11.3857805685
  H        28.5054454066       21.1028776474        7.8940416597
  H        25.7212829353       19.6910883325       12.0874479691
  H        23.5399344610       19.7551656571       13.3033619895
  H        22.3132604062       16.1644836100       11.2789326288
  H        24.4991273529       16.1154023212       10.0616106678
  H        23.6958976268       17.7227968157       14.7862465709
  H        28.9501553535       21.7379337723        9.7196948055
  H        29.1578523878       21.7309450951        6.5177333277
  H        32.2813662646       18.7193635372       10.8523615990
  H        27.3414938853       19.0675946625        8.0694806254
  H        14.8507614063       19.6760920329       12.1026400956
  H        17.0188389204       19.7371488357       13.3399901284
  H        18.3017923061       16.2022042591       11.2530121747
  H        16.1303110816       16.1575826591       10.0142425050
  H        16.9110834623       17.7378053466       14.8137261810
  H        46.0846202847       15.4448061078       12.0709755033
  H        43.9599698008       15.3922826893       13.3771371625
  H        42.5544103015       18.8306468019       11.2072387667
  H        44.6786781569       18.8568271120        9.8897909014
  H        44.0138323158       17.3306980111       14.8399824687
  H        20.2913990601       17.9449785761       11.4017501273
  H        46.0360771154       15.3819235313        4.0364879413
  H        43.9041508308       15.3127738091        2.7452184777
  H        42.5093836012       18.7787412313        4.8764934155
  H        44.6482023949       18.8343184426        6.1684665718
  H        43.9963048276       17.2995350072        1.2887888153
  H        46.1989079251       26.6826020289        4.6232978727
  H        52.7411547999       21.0626820581        8.1946344694
  H        14.8654270435       19.6835013419        3.9105136205
  H        17.0596885706       19.7621431359        2.7155464088
  H        18.3122347787       16.2110437019        4.7931512082
  H        16.1207984030       16.1573057942        5.9994180327
  H        16.9224445377       17.7426207594        1.2622448330
  H        52.3223253928       21.6735808658        6.2946788666
  H        52.0134623166       21.7025304965        9.4954622989
  H        49.0671219142       18.6075873708        5.2041205485
  H        13.2471960697       19.0165465788        7.9758376066
  H        29.9612329908       12.4942184739       12.2283265795
  H        28.9163320083       10.5544748321       13.4110819773
  H        25.2905223024       11.1477699410       11.1741368433
  H        26.3546491774       13.0704247988        9.9818074703
  H        27.1953469603       11.6621166169       14.7871331985
  H        30.9986268192       22.7257550299       12.0127628009
  H        31.9958836658       24.5995250491       13.3251677251
  H        35.6643693404       24.1771746409       11.1177774796
  H        34.6464640349       22.3145331970        9.7978660211
  H        33.6744139080       23.5654910008       14.7496364580
  H        25.7638067441        8.5806248715       11.3858276573
  H        30.9250149105       22.6668311166        3.8801159675
  H        31.9433215805       24.5445731078        2.5943456231
  H        35.5568221078       24.1482775785        4.8952119949
  H        34.5169070791       22.2845664648        6.1912092394
  H        33.6467284721       23.5518890380        1.1967181648
  H        40.5804295159       17.0596562404        4.6594883665
  H        32.5216879224       14.1405814693        8.1856297544
  H        29.8513987623       12.4895875841        3.9734080966
  H        28.8324776861       10.6006565927        2.7029558324
  H        25.1253937090       11.1973334171        4.8002067392
  H        26.1599992501       13.0850281650        6.0739805493
  H        27.1561717880       11.6805749443        1.2330389815
  H        33.2859009449       14.2206157846        6.3416446455
  H        33.4069920487       14.3721111153        9.5443588286
  H        32.1151847353       18.5315254978        5.1287985260
  H        30.1848237094       14.1425404789        8.0681289786
  H        16.1177964299        2.9627891277       12.1290403236
  H        14.9521213513        4.8195572694       13.3218057266
  H        17.3655787631        7.6856806235       11.2106874504
  H        18.5147638150        5.8184127566       10.0108648766
  H        16.7524224483        5.7389083691       14.7713908345
  H        44.8280056826       32.1401157047       11.9768693864
  H        45.9372532133       30.3412174247       13.3063196727
  H        43.6820013084       27.3780754386       11.1525612385
  H        42.5993042036       29.1899763080        9.8099406073
  H        44.2300999187       29.4366046390       14.7688377111
  H        14.8499326338        8.5454169429       11.3632436463
  H        44.9000055811       32.2339454480        3.9320219923
  H        46.0248038829       30.4128588373        2.6524517899
  H        43.7628227650       27.4840213642        4.8449500944
  H        42.6451182341       29.3177729158        6.1240679293
  H        44.2682514586       29.4703831496        1.2181470717
  H        35.0456434102       26.6214958479        4.6269175582
  H        36.6051704669       35.1338015813        8.1807882051
  H        16.1433172318        3.0126408758        3.9043272979
  H        14.9735395720        4.8558816635        2.6886192061
  H        17.3958970417        7.7469765131        4.7547382971
  H        18.5430152455        5.8931574038        5.9824646221
  H        16.7638382604        5.7549996696        1.2191526106
  H        36.2786907680       34.4819737273        6.2732503994
  H        36.3809019452       34.2091458979        9.4999415227
  H        40.5797015452       33.2021600783        5.1538097999
  H        17.4709357603        1.9469566467        7.9740333745
  H        28.7515086787       19.1834486914       12.3742053473
  H        28.6251830780       18.8552053730        3.7351690605
  H        30.7236572899       15.2147459098        3.7763137890
  H        32.5499774917       16.2453465131       12.2833966652
  H        18.8536468453        0.8689480137       12.3352830267
  H        40.5282098536       35.2289954974        3.9521324506
  H        42.3237791734       34.4188744740        3.5903315183
  H        22.0875141222        0.6921193966       12.3516841178
  H        11.5965849895       18.7129234928       12.3826435881
  H        52.2647464649       18.4313910009        3.6773708864
  H        49.2552241392       16.4763546556        3.5840663209
  H        10.1503171771       15.7982447465       12.2925669203
  H        50.8499357676       17.6926331368        3.9540070617
  H        10.0460676812       17.3947284425       12.0519315961
  H        20.2149382229        0.0020785895       12.0419912004
  H        39.1836435939       36.1243465932        3.6865588555
 Ni        30.5661121437       17.5335597740        3.4124210312
 Ni        30.9858740757       16.5737285701       -1.6656940158
 Ni        30.6494974135       17.2568060831        0.4159630397
 Ni        30.6078954670       17.6691128404       12.2436942027
  O        10.6497536392       14.3651863404        5.4858256485
  O        12.6131609356       14.6573168252        6.5838100844
  O        49.1476546400       16.8459572593        7.9895706986
  O        50.3501028540       20.9361992684        5.6482088112
  O        48.3485134480       20.5931931435        6.6659433060
  O        11.0510465616       17.0540017797        6.5006244021
  O        50.3207048674       20.8816980803       10.4069414538
  O        48.3465018083       20.5866662032        9.3270933489
  O        49.5436919679       18.2483419656       10.0683664755
  O        12.3588536235       18.6246483946        7.9997729170
  O        48.6931667988       14.1487136863        6.7512566232
  O         8.2098097647       14.2104706734        9.3225822875
  O        10.7352532022       14.5068205340       10.6643757843
  O        12.5718254565       14.5826697160        9.3286188403
  O        22.8443031187        2.0423167542        5.4873347212
  O        21.6046807443        3.5918037232        6.5898782569
  O        42.0579157248       34.1371050386        7.9790478214
  O        37.9813014293       33.1350747054        5.5718150622
  O        39.2174209591       31.5746652768        6.6653943978
  O        20.3082361223        1.0392583688        6.5020385009
  O        38.0246693042       33.1849257066       10.4160870005
  O        39.2188904345       31.5829299749        9.3279460634
  O        40.6519661888       33.7692319821       10.0602084554
  O        18.2557378413        1.3759603298        7.9969122239
  O        44.6221813269       35.1005452335        6.7588186366
  O        24.2055521951       -0.0000432644        9.3207967413
  O        22.7532431965        2.0568744765       10.5831678501
  O        21.6245779227        3.5958161296        9.3424821336
  O        27.4431979194       18.7102756216        5.4938966824
  O        26.6917834906       16.9198263268        6.6694885955
  O        30.6363881064       19.3498438340        8.0120293411
  O        33.5413345854       16.3302791525        5.6576726269
  O        34.2673772001       18.1827120022        6.7420387957
  O        29.5539248122       17.0516725922        6.5791789385
  O        33.5853876382       16.2672367742       10.4161012031
  O        34.2601229890       18.1826965999        9.4034295625
  O        31.6455020206       18.2967697309       10.2486225514
  O        30.2919659336       15.1076875085        8.0738049088
  O        28.5500607590       21.0333096894        6.8242989755
  O        28.5058885873       20.9674145980        9.3260175451
  O        27.4552095667       18.6785258017       10.6575868731
  O        26.6914930758       16.9294702009        9.4158250408
  O        13.1461768331       18.6938840481       10.5860648048
  O        13.9180572549       16.9160750263        9.4041502978
  O        50.5957005912       19.3502376925        8.0204314967
  O        47.6818593980       16.3275676773       10.4179563748
  O        46.9509508488       18.1759850630        9.3251338826
  O        11.0690758912       17.0158750013        9.4895961705
  O        47.6740567247       16.3360452551        5.6524880070
  O        46.9246345288       18.2358579954        6.6629699578
  O        49.5685209105       18.3175820723        5.9822038105
  O        10.3182867118       15.1001539221        7.9969349526
  O        52.6706558514       21.0279638234        9.2418062351
  O        12.1468515583       20.8914014520        6.6732940345
  O        13.1050726574       18.6142910653        5.3261023529
  O        13.9557149465       16.9866070826        6.6650204576
  O        29.9958073969       14.4388679736       10.6642195952
  O        28.0722242409       14.6602550074        9.4854775109
  O        32.0680122334       16.8535691902        8.0765160272
  O        30.9575283890       20.9578266716       10.3254793947
  O        32.9557852673       20.5795425148        9.3247526538
  O        29.5708169604       17.0778481535        9.5648562620
  O        30.8591920050       20.8774496849        5.5897180888
  O        32.8576821759       20.5812881733        6.6552555271
  O        31.6124826733       18.2411905564        5.9115669452
  O        28.2301590605       18.6766736697        8.0655229513
  O        32.4928481165       14.2057486529        9.2511778551
  O        32.4017499482       14.2102947190        6.7454879055
  O        29.8357723851       14.4368193793        5.4912924590
  O        27.9592973375       14.5885778763        6.7544197630
  O        17.8891994839        1.9665245214       10.6627923018
  O        18.9561936666        3.5270958034        9.4080276621
  O        39.1685074452       34.1385562990        7.9971767464
  O        43.2802269674       33.0587535338       10.3318259799
  O        42.0343129306       31.5063859220        9.2415899954
  O        20.3174435093        1.0364098572        9.4802704450
  O        43.2758702960       33.1825307107        5.5746100134
  O        42.0050869350       31.5841212568        6.5828035180
  O        40.5789809903       33.7749490756        5.9358688596
  O        22.3671355357        1.3845108994        7.9981000644
  O        36.6727485919       35.0997360567        9.2333516766
  O        16.4456365465        0.0639465344        6.6681635690
  O        17.9362508145        2.0431685147        5.3263652878
  O        18.9188371727        3.5932651214        6.6659076998
  O        29.5530048339       18.9416104432        4.0205605946
  O        29.6461114858       19.2684535256       11.9981813152
  O        31.3048411466       15.9629568602        4.0132566942
  O        31.6002207785       16.0462591515       12.1679029027
  O        39.4568234049       35.2436908054        4.0019850029
  O        19.1414787032        0.0044756182       11.9905006114
  O        41.9694476966       35.1726216611        4.0871812529
  O        21.6912754391       -0.0693949858       11.8960429689
  O        51.3648214601       18.6143599034        4.0052441811
  O        10.7508662098       18.7472041010       11.9049904062
  O        50.0794165903       16.4127754432        4.0917927401
  O         9.5243879879       16.4831326375       11.9912248391
 Zr         9.2967633334       16.0528681477        6.1821917780
 Zr        49.8362210717       16.0069013791        9.7465346607
 Zr        22.0732392999        0.0296961433        6.1892913422
 Zr        42.4609291494       35.1533643597        9.8011007783
 Zr        29.5469306051       19.0870152098        6.2536793102
 Zr        29.5374366824       19.2063309890        9.8304561000
 Zr        11.0373765317       19.0524154189        9.8277193773
 Zr        11.0434945736       19.1551452128        6.2511060335
 Zr        31.3254414770       16.0446226111        9.8759061971
 Zr        31.3615357910       15.9823032969        6.2714826995
 Zr        18.6010850829       -0.0016584369        9.7635617669
 Zr        18.5064425255       -0.0082508385        6.2135410896
 Zr        12.3012035983       16.3231312497        7.9904520770
 Zr        48.6160283992       18.8330178806        8.0100050355
 Zr        20.3149654389        2.4732233074        7.9907743221
 Zr        40.6428537088       32.6866576729        7.9781226339
 Zr        28.3189969353       16.3363077791        8.0800184792
 Zr        32.6027604406       18.8253335594        8.0132162873
