     560
 i =      121, E =     -4677.7377335463
  C        11.8586575487       14.0535659558        5.7413811148
  C        12.4559279299       12.8903745236        5.0233190258
  C        11.7042651678       12.1717402381        4.0814075224
  C        12.2805208327       11.1094528022        3.3890737564
  C        13.6209916801       10.7393256973        3.6169862472
  C        14.3541214473       11.4426222837        4.5907071021
  C        13.7813334735       12.5076486962        5.2822233261
  C        14.2604096154        9.6486123167        2.8435545750
  C        14.2554943148        9.6564087455        1.4218461078
  C        13.7423056699       10.7585000184        0.6679065484
  C        49.1265903954       21.2334070340        5.8797173503
  C        48.5497607206       22.4012486758        5.1526737501
  C        49.2997639747       23.0685024259        4.1715940217
  C        48.7328066179       24.1075982090        3.4383792593
  C        47.4022658685       24.5092353927        3.6670348561
  C        46.6713622153       23.8604511459        4.6806421522
  C        47.2338230248       22.8155746067        5.4100025384
  C        46.7720233125       25.5868987072        2.8697346808
  C        46.7610269605       25.5572488896        1.4479708886
  C        47.2609744567       24.4421447452        0.7044933507
  C        14.8592954409        8.5699908537        0.7085690238
  C        14.8912834829        8.5966978130        3.5201908779
  C        49.1130341235       21.2036534667       10.1450505556
  C        48.5275332621       22.3647440112       10.8724368536
  C        49.2666774578       23.0252605355       11.8655503553
  C        48.6903580142       24.0598293758       12.5969897642
  C        47.3599825217       24.4567059139       12.3586417056
  C        46.6397248536       23.8121013213       11.3347954520
  C        47.2132777167       22.7761921265       10.6030177219
  C        46.7215480395       25.5316969897       13.1496247860
  C        46.7332547959       25.5280132227       14.5713248423
  C        47.2486830079       24.4288171033       15.3277296366
  C        40.6189466311       17.0963628341       15.3189461816
  C        40.6391903940       17.1507568657       12.5085519807
  C        11.8827932724       14.0863268953       10.2854544766
  C        12.4717430041       12.9102795249       10.9894818265
  C        11.7141652302       12.1775433357       11.9159351440
  C        12.2804553879       11.0949328426       12.5843365876
  C        13.6190637540       10.7205820705       12.3522420995
  C        14.3569999742       11.4355595224       11.3909540104
  C        13.7918821708       12.5168805171       10.7182569289
  C        14.2524851420        9.6237975954       13.1227231339
  C        14.2512987052        9.6438605861       14.5445674014
  C        13.7415863614       10.7528764996       15.2916490866
  C        22.5060032397        3.2428270493        5.7482271962
  C        23.2084714945        4.3462034927        5.0355505043
  C        24.2063067876        4.0639221502        4.0911531033
  C        24.8268894835        5.1015217474        3.4009217091
  C        24.4639846979        6.4425686920        3.6349197966
  C        23.4906783264        6.7165060367        4.6129048767
  C        22.8664239772        5.6808545521        5.3024821067
  C        25.0724107616        7.5475538775        2.8610309533
  C        25.0662291429        7.5366128264        1.4399114566
  C        24.3746383263        6.5349209626        0.6878834439
  C        38.3011458974       31.9263978106        5.8478872222
  C        37.5680477260       30.8368096864        5.1381444842
  C        36.6049798564       31.1425364914        4.1638574352
  C        35.9808828137       30.1245048703        3.4473800461
  C        36.3033510707       28.7731092570        3.6817970278
  C        37.2378421675       28.4748396286        4.6918849241
  C        37.8659759015       29.4918170882        5.4076547997
  C        35.6920923478       27.6836968267        2.8844243285
  C        35.7199496473       27.6994813219        1.4621548923
  C        36.4267204948       28.7005205628        0.7240964547
  C        25.6996042627        8.6049633248        0.7268041612
  C        25.6553232591        8.6260385850        3.5374368698
  C        38.3263463366       31.9603616692       10.1568032833
  C        37.5994472156       30.8876673112       10.8974959476
  C        36.6677965022       31.1983661817       11.9003427230
  C        36.0501436947       30.1820581878       12.6274159895
  C        36.3480850301       28.8273769816       12.3765343929
  C        37.2579758807       28.5267605283       11.3439429584
  C        37.8777926033       29.5396973815       10.6179039687
  C        35.7325907162       27.7299636770       13.1603659124
  C        35.7399315671       27.7234805780       14.5831571842
  C        36.4354667812       28.7125470846       15.3472068413
  C        46.1352469725       26.6206544858       15.2814495526
  C        46.0875501128       26.5800264539       12.4735621890
  C        22.4657479648        3.2542858944       10.2520921904
  C        23.1728831910        4.3603215004       10.9642529739
  C        24.1843781460        4.0690943623       11.8932679242
  C        24.8235450101        5.0963600711       12.5825461504
  C        24.4705039424        6.4428797255       12.3648707068
  C        23.4837727927        6.7275992837       11.4025095559
  C        22.8403676373        5.7005829751       10.7130064378
  C        25.1039117786        7.5366980580       13.1417608346
  C        25.0831009017        7.5302600131       14.5636898682
  C        24.3798204861        6.5338295232       15.3115065054
  C        26.5620412915       17.8256197582        5.7868958688
  C        25.2617834004       17.8916796758        5.0611121487
  C        25.0098842373       18.9076755116        4.1260067830
  C        23.8020190961       18.9402946823        3.4333863374
  C        22.8140644446       17.9603234333        3.6551326759
  C        23.0613108806       16.9675641997        4.6217597561
  C        24.2701158296       16.9299873253        5.3130222935
  C        21.5485978061       17.9565898637        2.8826978904
  C        21.5577614987       17.9567701329        1.4606633877
  C        22.7686256094       17.8530730249        0.7055771144
  C        34.4184982966       17.2157412093        5.9128975684
  C        35.7130050019       17.1458425343        5.1759663953
  C        35.9011298435       16.1838309035        4.1711140776
  C        37.0838353517       16.1561739546        3.4369339038
  C        38.1089340669       17.0905954661        3.6838379990
  C        37.9221852261       18.0320137965        4.7147658410
  C        36.7386051765       18.0640708716        5.4485084639
  C        39.3628891191       17.0927629592        2.8950119900
  C        39.3591195702       17.1051831881        1.4722464779
  C        38.1525961137       17.2233985158        0.7124690668
  C        20.3141177523       17.9753577452        0.7479097805
  C        20.3224471431       17.9438471600        3.5605157713
  C        34.4563063209       17.1907678369       10.1707337813
  C        35.7588223384       17.1226223853       10.8932180963
  C        35.9988049392       16.1194786813       11.8453919831
  C        37.1819086570       16.1141754482       12.5792522298
  C        38.1601648020       17.1065338783       12.3756535671
  C        37.9296683744       18.0837225074       11.3890725907
  C        36.7417902762       18.0977765032       10.6622605579
  C        39.4079035097       17.1274920827       13.1728038622
  C        39.3824098737       17.1219899872       14.5941959490
  C        38.1634316630       17.2277940814       15.3353653675
  C        35.1062167045       26.6456424121       15.2872533133
  C        35.1400688283       26.6597999587       12.4775869553
  C        26.5670182147       17.8285211635       10.3257974503
  C        25.2537891368       17.8882669974       11.0268820422
  C        24.9781873070       18.9243611148       11.9320708654
  C        23.7602234356       18.9598497132       12.6046099898
  C        22.7899575638       17.9610637774       12.3923796280
  C        23.0584414325       16.9500314359       11.4521611559
  C        24.2773209484       16.9111423944       10.7790315289
  C        21.5253554030       17.9532032367       13.1628570590
  C        21.5452508907       17.9558977618       14.5838406472
  C        22.7626425027       17.8541057439       15.3291503354
  C        14.0459198467       17.8326868950       10.2837488792
  C        15.3526386663       17.8999600765       11.0004997288
  C        15.6106799450       18.9172990293       11.9321256146
  C        16.8212011677       18.9477662412       12.6206354546
  C        17.8052659135       17.9638839053       12.3983455416
  C        17.5530544817       16.9716177170       11.4327437784
  C        16.3419895563       16.9368984945       10.7453320325
  C        19.0715347879       17.9547233760       13.1690178380
  C        19.0639492213       17.9569988786       14.5907023116
  C        17.8532310198       17.8544024137       15.3454998040
  C        46.8036725617       17.2189422128       10.1593753226
  C        45.5132610993       17.1577602250       10.9061433698
  C        45.3051916394       16.1778237546       11.8892616599
  C        44.1229392406       16.1587552460       12.6249165493
  C        43.1177125385       17.1200593112       12.4007480780
  C        43.3234772748       18.0802239265       11.3914017747
  C        44.5062162954       18.1027313228       10.6561946365
  C        41.8631300751       17.1281303259       13.1884838929
  C        41.8664287452       17.1155455005       14.6108708735
  C        43.0743881529       17.2056918858       15.3717707802
  C        20.3074393677       17.9736629967       15.3036418649
  C        20.2971303082       17.9325608800       12.4910288691
  C        46.7824238758       17.2304458294        5.8885746569
  C        45.4772411221       17.1200402706        5.1744217599
  C        45.2587509876       16.1176848055        4.2168039532
  C        44.0692868375       16.0844725590        3.4924387237
  C        43.0666886955       17.0502145633        3.7078749844
  C        43.2755568945       18.0223609455        4.7042689654
  C        44.4663115177       18.0619465785        5.4237356780
  C        41.8191754867       17.0671925627        2.9102096467
  C        41.8439925750       17.0828559953        1.4888271236
  C        43.0635582258       17.1879512729        0.7484804895
  C        46.1530171398       26.6371228883        0.7262075737
  C        46.1620470316       26.6560158484        3.5358506520
  C        14.0404667569       17.8290733607        5.7062574844
  C        15.3543735430       17.9000603178        5.0055709786
  C        15.6233681743       18.9251139092        4.0865830519
  C        16.8473552069       18.9657627703        3.4239074923
  C        17.8274388746       17.9804451669        3.6557410634
  C        17.5638191996       16.9808179767        4.6094110025
  C        16.3420244459       16.9400432870        5.2762665348
  C        19.0940911422       17.9677118497        2.8884565994
  C        19.0759844090       17.9621201302        1.4673276746
  C        17.8591956304       17.8565198088        0.7217333663
  C        28.8094227328       14.0830992767       10.3613356166
  C        28.2156612336       12.9042273065       11.0495799305
  C        28.9468656841       12.1793232565       12.0021457155
  C        28.3576717177       11.1021729119       12.6599793524
  C        27.0259294150       10.7279881351       12.3884954934
  C        26.3185655761       11.4334906541       11.3982795711
  C        26.9038789318       12.5105592760       10.7394934837
  C        26.3601838257        9.6464414998       13.1496185772
  C        26.3344675518        9.6737954740       14.5702646847
  C        26.8312068853       10.7870116264       15.3197297684
  C        32.1752494588       21.2401053852       10.1062065859
  C        32.7570800571       22.4056415254       10.8342542776
  C        32.0069751605       23.0633445544       11.8220708958
  C        32.5700837506       24.1017396126       12.5590596298
  C        33.8984245314       24.5122961782       12.3312993151
  C        34.6303249647       23.8706575053       11.3132523453
  C        34.0711865169       22.8268374764       10.5783962167
  C        34.5222820341       25.5896436825       13.1359104815
  C        34.5131337306       25.5620630552       14.5585326799
  C        34.0066291256       24.4467966123       15.2978418622
  C        25.7141959357        8.5975520995       15.2828388240
  C        25.7276222960        8.5964472463       12.4710279484
  C        32.0753072298       21.1924010359        5.8448400406
  C        32.6543872810       22.3599843407        5.1158737283
  C        31.9280964218       23.0071961850        4.1039548112
  C        32.5045889371       24.0488696775        3.3800557211
  C        33.8229517388       24.4715278052        3.6438527157
  C        34.5295008831       23.8386951893        4.6852242266
  C        33.9571895980       22.7950211348        5.4078236499
  C        34.4665874710       25.5530922070        2.8608572769
  C        34.4854211841       25.5433760634        1.4378791336
  C        33.9928738832       24.4381237783        0.6748021355
  C        40.6068121312       17.0832372532        0.7642321931
  C        40.5874257367       17.0898567612        3.5741177072
  C        28.6625078136       14.0613593108        5.8188577935
  C        28.0613655391       12.9151758929        5.0795499870
  C        28.8160775097       12.2061239544        4.1322034509
  C        28.2443583600       11.1510942897        3.4268137338
  C        26.9036392456       10.7779080560        3.6461873185
  C        26.1658332436       11.4719488558        4.6233086096
  C        26.7353768872       12.5289841541        5.3298932214
  C        26.2758403020        9.6863181970        2.8659074364
  C        26.2924276307        9.6946601088        1.4446462945
  C        26.8088478936       10.7981151740        0.6954710578
  C        18.1352462218        3.1808595378       10.3171077125
  C        17.4056286875        4.2779709863       11.0156762128
  C        16.3897423894        3.9993344206       11.9429259787
  C        15.7417321415        5.0391421465       12.6064295245
  C        16.0935246002        6.3829227081       12.3669693676
  C        17.0830589664        6.6527272749       11.4034463493
  C        17.7324354882        5.6155578598       10.7383823731
  C        15.4689689805        7.4904867775       13.1300420539
  C        15.4842845301        7.4898460140       14.5517636203
  C        16.1859243760        6.4962776049       15.3049175212
  C        42.9457729446       31.8594359413       10.0727427662
  C        43.6460258097       30.7716965222       10.8167679585
  C        44.5916620647       31.0930141324       11.8027382963
  C        45.1973464629       30.0874637822       12.5504037877
  C        44.8707783887       28.7344389106       12.3356220544
  C        43.9448735714       28.4200963034       11.3225066647
  C        43.3360687821       29.4252342251       10.5744638702
  C        45.4883375736       27.6551432007       13.1388282910
  C        45.4925285375       27.6807782628       14.5605280745
  C        44.8054624445       28.6888571339       15.3071352077
  C        14.8553439270        8.5623667192       15.2641240133
  C        14.8736572881        8.5622228849       12.4514536523
  C        42.9465469818       31.9615425384        5.8091877162
  C        43.6916278672       30.8853619378        5.0955643930
  C        44.6563222395       31.1912847346        4.1233760404
  C        45.2777715392       30.1716862145        3.4055832141
  C        44.9537091754       28.8214046337        3.6430044514
  C        44.0200534132       28.5237240444        4.6536150131
  C        43.3918682339       29.5404969484        5.3658553512
  C        45.5627729294       27.7239989907        2.8577768203
  C        45.5330377072       27.7172804026        1.4364852220
  C        44.8267383340       28.7075127187        0.6835298977
  C        35.0944062919       26.6347111570        0.7333233354
  C        35.0819774877       26.6102628694        3.5440630766
  C        18.1484073846        3.2467682102        5.7066789488
  C        17.4297651713        4.3435615068        4.9972418802
  C        16.4144133496        4.0522271824        4.0738566761
  C        15.7659706962        5.0828127482        3.3984971422
  C        16.1207043030        6.4280615620        3.6210041654
  C        17.1122550099        6.7115179484        4.5780596049
  C        17.7600240897        5.6826521752        5.2578178369
  C        15.4900087163        7.5237021542        2.8486045108
  C        15.4956715791        7.5069653912        1.4274557844
  C        16.1923259659        6.5051965753        0.6807375392
  H        10.6722201427       12.4660909748        3.9042282566
  H        11.6942116103       10.5511370047        2.6624190929
  H        15.3910449792       11.1677470105        4.7726389584
  H        14.3507612816       13.0705704213        6.0179263304
  H        13.3754642588       11.6307207366        1.2011760995
  H        50.3224696235       22.7484753098        3.9868397331
  H        49.3192415050       24.6228322019        2.6807403694
  H        45.6418886418       24.1612541841        4.8638356998
  H        46.6628403912       22.2903950595        6.1721505510
  H        47.6294885639       23.5757611283        1.2461944161
  H        14.8718118474        8.5879799536        4.6085031685
  H        50.2866704936       22.7023109311       12.0605755198
  H        49.2686510836       24.5751373219       13.3606711880
  H        45.6103986030       24.1095163281       11.1455620346
  H        46.6525682439       22.2542787599        9.8312004715
  H        47.6074423734       23.5516632790       14.7968824350
  H        40.6460037700       17.1302150429       11.4204081020
  H        48.6870165602       14.0950782522        7.7999761805
  H        10.6808616350       12.4670745045       12.0935558842
  H        11.6886059447       10.5248968725       13.2972730724
  H        15.3922506733       11.1571767232       11.2047448544
  H        14.3642504377       13.0858114202        9.9894087864
  H        13.3748100461       11.6215219686       14.7530312556
  H        47.9301336137       14.2181712940        9.7109557855
  H        47.7799554779       14.3738704056        6.4952683166
  H        49.0832104637       18.5523966856       10.8672414169
  H        10.4158972444       14.1343293624        7.9987916227
  H        24.4742333486        3.0253881945        3.9101873507
  H        25.6031800169        4.8837058063        2.6706418224
  H        23.2027953773        7.7493116148        4.7978417260
  H        22.0944292852        5.8816249780        6.0412581423
  H        23.8074963435        5.7788791409        1.2230610103
  H        36.3694550689       32.1863183478        3.9698824543
  H        35.2339695548       30.3678120682        2.6948727828
  H        37.4964493779       27.4350853362        4.8816239193
  H        38.6118387546       29.2665905418        6.1663817790
  H        36.9941015368       29.4489571683        1.2696128715
  H        25.6731584316        8.6129211940        4.6256838784
  H        36.4479610914       32.2431739787       12.1080040007
  H        35.3226874903       30.4311359079       13.3968639352
  H        37.5018136651       27.4858236702       11.1419569264
  H        38.6018748525       29.3099203416        9.8399370668
  H        37.0105276197       29.4698952256       14.8222810686
  H        46.1089825226       26.5874358646       11.3855268121
  H        44.6682604262       35.1161621882        7.8141279957
  H        24.4585371518        3.0294575799       12.0573069565
  H        25.6099363791        4.8651665118       13.2978956463
  H        23.2010870079        7.7634805223       11.2264623840
  H        22.0618894884        5.9160694658        9.9847825884
  H        23.8160188984        5.7774364809       14.7733885152
  H        44.9536709727       34.3899597483        9.6947986672
  H        44.9019492320       34.2068792360        6.4906823114
  H        40.6650665557       33.2083413090       10.8528141298
  H        23.1501478637        1.9577863124        8.0029257511
  H        25.7693003694       19.6680135839        3.9583280300
  H        23.6083913980       19.7329520199        2.7139077900
  H        22.3074673851       16.2032633717        4.7991137362
  H        24.4755168357       16.1510289040        6.0435410883
  H        23.7088344930       17.7391149120        1.2373614053
  H        35.1014027310       15.4743296858        3.9706248701
  H        37.2274027402       15.4019560780        2.6663701219
  H        38.7040350474       18.7629864509        4.9102599782
  H        36.5795885200       18.8074685280        6.2262526229
  H        37.2111092291       17.3432497752        1.2409509302
  H        20.3246599425       17.9672338322        4.6488162607
  H        35.2458390173       15.3513870641       12.0061658258
  H        37.3631150206       15.3349774720       13.3163836370
  H        38.6784742091       18.8560915955       11.2259116988
  H        36.5428416633       18.8705938317        9.9233891601
  H        37.2303269277       17.3490775945       14.7923770204
  H        35.1144884157       26.6857136728       11.3897920614
  H        28.5077850347       21.0830365757        7.8831397722
  H        25.7290104385       19.6948679586       12.0909775556
  H        23.5458178782       19.7647264213       13.3043779417
  H        22.3156353337       16.1728940561       11.2844720739
  H        24.5025117690       16.1188147761       10.0692060483
  H        23.6984034389       17.7423453035       14.7892950789
  H        28.9747762794       21.7251014833        9.6993451183
  H        29.1814739416       21.7073285912        6.5250146046
  H        32.2370977053       18.6791960218       10.8464910288
  H        27.3696296503       19.0261675549        8.0745027810
  H        14.8516027202       19.6775861772       12.1016733346
  H        17.0196020498       19.7408549501       13.3383842353
  H        18.3044012559       16.2052379287       11.2537227993
  H        16.1328888574       16.1582348544       10.0156961332
  H        16.9134786790       17.7397097267       14.8132805942
  H        46.0870107704       15.4438720855       12.0701106291
  H        43.9632329056       15.3901090159       13.3778969272
  H        42.5567909402       18.8314367182       11.2132282065
  H        44.6799168659       18.8584425707        9.8936775235
  H        44.0167280428       17.3227917538       14.8443281385
  H        20.2951778050       17.9517136184       11.4026680527
  H        46.0371667399       15.3787351888        4.0407988715
  H        43.9046451485       15.3062504733        2.7503380185
  H        42.5076581824       18.7732828109        4.8782840233
  H        44.6469882556       18.8320935253        6.1696693117
  H        43.9977655294       17.2900446647        1.2930860761
  H        46.1988717766       26.6826109616        4.6232951247
  H        52.7411666268       21.0626743548        8.1946301015
  H        14.8639451392       19.6836067636        3.9102939178
  H        17.0582696164       19.7640502280        2.7155899403
  H        18.3131697449       16.2135314624        4.7926977605
  H        16.1216017765       16.1579054170        5.9986971574
  H        16.9238965784       17.7433848344        1.2617256352
  H        52.3223819280       21.6736084846        6.2946793658
  H        52.0134789710       21.7025239769        9.4955120512
  H        49.0670413677       18.6075878711        5.2042267689
  H        13.2472038197       19.0164877057        7.9758674542
  H        29.9699931873       12.4807789417       12.2164258055
  H        28.9238942737       10.5392906837       13.3988512430
  H        25.2897729949       11.1533043864       11.1819100535
  H        26.3545070559       13.0776850308        9.9921976889
  H        27.2029888150       11.6548588185       14.7832126008
  H        30.9878452713       22.7334465453       12.0099733069
  H        31.9815160433       24.6091708201       13.3202433098
  H        35.6586574669       24.1755739773       11.1302703747
  H        34.6448799523       22.3087921144        9.8132939337
  H        33.6541619846       23.5752996206       14.7535177458
  H        25.7649841115        8.5778429457       11.3832518414
  H        30.9168183052       22.6701332641        3.8874056484
  H        31.9327760764       24.5501291767        2.6021885466
  H        35.5498315803       24.1515471451        4.8971941449
  H        34.5115356906       22.2855203249        6.1924239567
  H        33.6302296739       23.5596316372        1.2009250401
  H        40.5803752393       17.0532075398        4.6618472293
  H        32.5164630528       14.1449851833        8.1620403557
  H        29.8529945318       12.4905099025        3.9686684642
  H        28.8352752503       10.5975442550        2.7003731052
  H        25.1285058519       11.1940417410        4.7981973824
  H        26.1635871056       13.0821033010        6.0713089839
  H        27.1623768030       11.6746022832        1.2307327886
  H        33.2900800873       14.2328725971        6.3533586079
  H        33.4109499290       14.3592297062        9.5312262899
  H        32.1052973028       18.5326497084        5.1263367468
  H        30.1903966681       14.1395776048        8.0680926939
  H        16.1178251784        2.9627539530       12.1291377166
  H        14.9521611398        4.8195458016       13.3218951320
  H        17.3654360115        7.6856623233       11.2105677325
  H        18.5146236237        5.8183949577       10.0107412108
  H        16.7524326961        5.7389164512       14.7713851765
  H        44.8280200751       32.1400880421       11.9768563318
  H        45.9372707294       30.3411926854       13.3062956892
  H        43.6820520591       27.3780510804       11.1524904127
  H        42.5993528118       29.1899426515        9.8098877039
  H        44.2301443975       29.4366262029       14.7687849282
  H        14.8499139920        8.5454194646       11.3632345213
  H        44.9000717560       32.2339607704        3.9321346881
  H        46.0248340134       30.4128834804        2.6524862726
  H        43.7628822051       27.4840178526        4.8450147399
  H        42.6452409815       29.3177617134        6.1241953282
  H        44.2682601187       29.4704292830        1.2180990883
  H        35.0399137148       26.6230271107        4.6316012038
  H        36.6051927825       35.1338259446        8.1807566535
  H        16.1432648551        3.0126334754        3.9043077542
  H        14.9735064421        4.8558922675        2.6885869695
  H        17.3958418877        7.7469937309        4.7547810250
  H        18.5429413342        5.8931686314        5.9825206550
  H        16.7638561619        5.7550123657        1.2191609571
  H        36.2787253760       34.4819958570        6.2732511976
  H        36.3808667852       34.2091591407        9.4998994191
  H        40.5796785690       33.2022133638        5.1539986648
  H        17.4708724028        1.9470952111        7.9740001268
  H        28.7858129805       18.9587684034       12.4134640667
  H        28.7186231544       18.7643593715        3.7294662950
  H        30.6853276471       15.3574746395        3.7455078974
  H        32.6322647005       16.1477371635       12.2331174903
  H        18.8536826196        0.8689946892       12.3352306511
  H        40.5282960455       35.2289796929        3.9521692908
  H        42.3236302754       34.4187813307        3.5904423578
  H        22.0874252488        0.6921444285       12.3516529053
  H        11.5966382497       18.7128878116       12.3826561506
  H        52.2648320232       18.4313644898        3.6774909932
  H        49.2552378171       16.4765077671        3.5841111191
  H        10.1503601104       15.7982500952       12.2925367782
  H        50.8500139069       17.6926661967        3.9540033486
  H        10.0460912710       17.3946981425       12.0519442146
  H        20.2150158408        0.0020597813       12.0419480768
  H        39.1836554835       36.1242887537        3.6865016394
 Ni        30.6478230440       17.6460435103        2.8351513347
 Ni        30.8636968635       16.8769445784       -1.2521157005
 Ni        30.4817177466       17.9442198961        0.5874463255
 Ni        30.7748079170       17.6163965493       12.5757633260
  O        10.6497740537       14.3651630427        5.4859106084
  O        12.6129740817       14.6574105770        6.5839564926
  O        49.1477066003       16.8459304572        7.9896499344
  O        50.3500951418       20.9362490806        5.6482193049
  O        48.3484849012       20.5932292775        6.6659269501
  O        11.0509672019       17.0539561153        6.5006799519
  O        50.3206740202       20.8815846296       10.4069660142
  O        48.3465931462       20.5865219079        9.3271406862
  O        49.5435080998       18.2484629445       10.0682861423
  O        12.3588088999       18.6246495503        7.9997055019
  O        48.6931668529       14.1486718299        6.7512680509
  O         8.2098242544       14.2104539138        9.3225777885
  O        10.7352959453       14.5068178006       10.6643483540
  O        12.5717056467       14.5827803840        9.3285592284
  O        22.8441265730        2.0421265238        5.4873233437
  O        21.6046311862        3.5918319676        6.5896973356
  O        42.0578741358       34.1370200524        7.9790449604
  O        37.9812939365       33.1351170443        5.5719493124
  O        39.2175433359       31.5749255590        6.6656305045
  O        20.3082606813        1.0394996303        6.5018952289
  O        38.0240308416       33.1847758225       10.4156187051
  O        39.2178800498       31.5826171829        9.3276119657
  O        40.6521827833       33.7691505184       10.0602379681
  O        18.2557730108        1.3762161533        7.9968388481
  O        44.6222113481       35.1005443342        6.7588447288
  O        24.2054920402       -0.0001036562        9.3207768017
  O        22.7530338279        2.0564149452       10.5829405903
  O        21.6243877648        3.5956198612        9.3421868263
  O        27.4621320447       18.6928040135        5.4857561079
  O        26.6911588245       16.9192582232        6.6708254969
  O        30.6293205815       19.3464957572        8.0046872136
  O        33.5400246353       16.3306223848        5.6552759516
  O        34.2666242750       18.1813781664        6.7417664330
  O        29.5368999565       17.0150581777        6.5696945666
  O        33.5955353766       16.2667830103       10.4063413394
  O        34.2643938837       18.1843396329        9.4004667688
  O        31.6476178459       18.3128107080       10.1643203887
  O        30.2924829632       15.1051726632        8.0702467663
  O        28.5513794211       21.0242673368        6.8191376433
  O        28.5108880653       20.9542931063        9.3300177575
  O        27.4613049354       18.6796298548       10.6593482647
  O        26.6911078315       16.9300859695        9.4188069138
  O        13.1467118507       18.6938366923       10.5861944596
  O        13.9184542798       16.9160947762        9.4044062279
  O        50.5957381192       19.3502457914        8.0205787058
  O        47.6822388888       16.3274903107       10.4178157245
  O        46.9510441487       18.1759663125        9.3251729519
  O        11.0690973846       17.0157762145        9.4895896781
  O        47.6742831095       16.3358519286        5.6527609519
  O        46.9246656389       18.2358403960        6.6631439905
  O        49.5687214840       18.3178261622        5.9822318337
  O        10.3187166053       15.1001786760        7.9969917807
  O        52.6706866734       21.0279890173        9.2418085741
  O        12.1468068042       20.8913772616        6.6733036965
  O        13.1049299971       18.6141944878        5.3260625000
  O        13.9557695143       16.9865820739        6.6649359610
  O        29.9985642287       14.4386420975       10.6645664722
  O        28.0731951609       14.6571239436        9.4879115921
  O        32.0687665818       16.8495313327        8.0593442832
  O        30.9541609592       20.9510731475       10.3333983235
  O        32.9547685596       20.5857460237        9.3260282967
  O        29.5736226052       17.0702164437        9.5784736934
  O        30.8572763521       20.8741488070        5.5875919161
  O        32.8562757632       20.5811090488        6.6552934868
  O        31.6109250781       18.2380466235        5.9095964070
  O        28.2570705335       18.6311368561        8.0662666586
  O        32.4934104799       14.2060020831        9.2419023588
  O        32.4002700449       14.2137322925        6.7442531479
  O        29.8380450618       14.4349418589        5.4849868012
  O        27.9604243266       14.5851139398        6.7512612512
  O        17.8892017006        1.9665169621       10.6628204092
  O        18.9561765449        3.5271048784        9.4080684865
  O        39.1684743301       34.1385387418        7.9971516425
  O        43.2801086552       33.0587865238       10.3317381462
  O        42.0342891676       31.5064099185        9.2416177435
  O        20.3173580272        1.0363464775        9.4802206049
  O        43.2760491496       33.1825039238        5.5749167504
  O        42.0052092113       31.5841579181        6.5830189870
  O        40.5790460833       33.7750351477        5.9359740353
  O        22.3671497138        1.3843454793        7.9980692079
  O        36.6728049670       35.0997240799        9.2333349769
  O        16.4456597306        0.0639994581        6.6681693950
  O        17.9363662824        2.0431714629        5.3263703695
  O        18.9189065761        3.5931188198        6.6658808120
  O        29.6545234761       18.8342179178        3.9969494104
  O        29.6926489270       19.0554226581       12.0692051964
  O        31.2254880770       16.1289209431        3.9987369585
  O        31.6740530291       16.0515374671       12.0815233519
  O        39.4568660529       35.2436777315        4.0020373547
  O        19.1415117206        0.0044923362       11.9905185666
  O        41.9694634591       35.1726529032        4.0872228023
  O        21.6912633045       -0.0694140213       11.8960356973
  O        51.3648777008       18.6143788414        4.0052764313
  O        10.7509432130       18.7472099967       11.9049742561
  O        50.0794856895       16.4127460875        4.0917509753
  O         9.5244165331       16.4831197245       11.9911967128
 Zr         9.2967187030       16.0529047796        6.1822151805
 Zr        49.8362643667       16.0068615439        9.7465184275
 Zr        22.0732513714        0.0296305387        6.1893192966
 Zr        42.4608646486       35.1533380515        9.8010489348
 Zr        29.5599779572       19.0558915822        6.2266994801
 Zr        29.5593205333       19.1887545129        9.8337502325
 Zr        11.0375937893       19.0522872049        9.8277664817
 Zr        11.0435165314       19.1551343031        6.2511349051
 Zr        31.3479919631       16.0466589782        9.8428896944
 Zr        31.3469015177       15.9874076884        6.2210069169
 Zr        18.6011452388       -0.0017506556        9.7636186905
 Zr        18.5065388499       -0.0082204240        6.2135431570
 Zr        12.3013921829       16.3233265969        7.9905589164
 Zr        48.6160861620       18.8330055823        8.0099332933
 Zr        20.3149439343        2.4732400853        7.9907736937
 Zr        40.6428195302       32.6866890242        7.9782748435
 Zr        28.3246513953       16.3226894079        8.0854045047
 Zr        32.5979657554       18.8196923486        8.0190097752
