     564
 i =      191, E =     -4680.1495091560
  C        11.8585253343       14.0533628120        5.7415383903
  C        12.4558651070       12.8903328144        5.0233362160
  C        11.7042740611       12.1717419646        4.0813271773
  C        12.2805811981       11.1095033186        3.3889790072
  C        13.6210135586       10.7393049775        3.6169909928
  C        14.3540323550       11.4424932967        4.5908712978
  C        13.7812087228       12.5074775207        5.2824128120
  C        14.2604850531        9.6486292270        2.8435708757
  C        14.2556454580        9.6565007284        1.4218630900
  C        13.7424793778       10.7586040315        0.6679250199
  C        49.1265619397       21.2334318507        5.8797365931
  C        48.5497274575       22.4012651581        5.1527332743
  C        49.2996768038       23.0684588736        4.1715662390
  C        48.7326919550       24.1075071900        3.4383154078
  C        47.4022031438       24.5092632107        3.6670837657
  C        46.6713537889       23.8605490636        4.6807868124
  C        47.2338400176       22.8157061680        5.4101875652
  C        46.7719356757       25.5868640171        2.8697439443
  C        46.7609774091       25.5572035159        1.4479890432
  C        47.2608669217       24.4420824878        0.7045099379
  C        14.8594979413        8.5701244649        0.7085752848
  C        14.8913635994        8.5967080877        3.5201991558
  C        49.1128823277       21.2035026286       10.1452911659
  C        48.5274915528       22.3648001236       10.8723644978
  C        49.2665785869       23.0252389937       11.8655852785
  C        48.6902203445       24.0597333485       12.5970784838
  C        47.3599074383       24.4567441789       12.3586091315
  C        46.6396705849       23.8121320703       11.3347578545
  C        47.2132477335       22.7762898181       10.6029142359
  C        46.7214533335       25.5316675074       13.1496481062
  C        46.7331911839       25.5279813297       14.5713482625
  C        47.2485814618       24.4287577832       15.3277485014
  C        40.6184582406       17.0831952939       15.3173881856
  C        40.6361607102       17.1335564235       12.5068928196
  C        11.8827900324       14.0863041422       10.2854819640
  C        12.4717818123       12.9102988925       10.9895226809
  C        11.7143069682       12.1776620850       11.9161285591
  C        12.2806491014       11.0950858239       12.5845305717
  C        13.6192006420       10.7206347371       12.3522542565
  C        14.3570320218       11.4355165044       11.3908101697
  C        13.7918520932       12.5167968224       10.7181071481
  C        14.2526968934        9.6239042391       13.1227369854
  C        14.2515132983        9.6439851357       14.5445785029
  C        13.7418018104       10.7529959370       15.2916688615
  C        22.5063380698        3.2427260580        5.7488794152
  C        23.2097474220        4.3461425738        5.0376406131
  C        24.2078252717        4.0639763889        4.0934866973
  C        24.8283866265        5.1017462019        3.4036014904
  C        24.4650711151        6.4426290472        3.6377805154
  C        23.4921015904        6.7164634956        4.6161019461
  C        22.8678291675        5.6806639763        5.3052989142
  C        25.0723603941        7.5476317642        2.8633290737
  C        25.0648521218        7.5362599528        1.4422526960
  C        24.3731412799        6.5340085573        0.6910173675
  C        38.3012767112       31.9267297461        5.8479575721
  C        37.5685712263       30.8371045218        5.1383128535
  C        36.6064873330       31.1423525325        4.1629336394
  C        35.9835762263       30.1238676132        3.4460931297
  C        36.3065141458       28.7727875417        3.6814637796
  C        37.2395459152       28.4750662816        4.6929887292
  C        37.8665723198       29.4923974284        5.4089534827
  C        35.6977792610       27.6823152432        2.8839982546
  C        35.7281574135       27.6967343949        1.4618735759
  C        36.4334817375       28.6987626388        0.7237504028
  C        25.6965112386        8.6050920261        0.7283683073
  C        25.6548223331        8.6267388131        3.5390945980
  C        38.3266033596       31.9603086445       10.1566562913
  C        37.6008607987       30.8868598370       10.8970323707
  C        36.6694373527       31.1959298428       11.9005078683
  C        36.0538353502       30.1783591724       12.6275354233
  C        36.3541538619       28.8242960733       12.3761442797
  C        37.2632826513       28.5252956624       11.3424550477
  C        37.8809788031       29.5394494106       10.6164750357
  C        35.7416364780       27.7256226530       13.1602800624
  C        35.7501892683       27.7190858382       14.5829968932
  C        36.4432580320       28.7100240731       15.3468588918
  C        46.1351861186       26.6206223187       15.2814725653
  C        46.0875009783       26.5800252611       12.4735865881
  C        22.4647810899        3.2540091199       10.2524561894
  C        23.1701594827        4.3601089974       10.9655868690
  C        24.1815732827        4.0693499969       11.8947720571
  C        24.8191755183        5.0969645806       12.5848082458
  C        24.4642547394        6.4430384567       12.3677199259
  C        23.4774591453        6.7272964730       11.4053365263
  C        22.8356303693        5.6999770527       10.7150714272
  C        25.0967130735        7.5372524345       13.1442498680
  C        25.0777639927        7.5304112718       14.5660651921
  C        24.3766436262        6.5330439003       15.3146350377
  C        26.5586340411       17.8269546232        5.7883393736
  C        25.2584512432       17.8874868074        5.0610470187
  C        25.0024933057       18.9064866192        4.1306019238
  C        23.7951695847       18.9369009258        3.4371013039
  C        22.8118606894       17.9516123539        3.6547266614
  C        23.0628559837       16.9554316301        4.6164607284
  C        24.2716082315       16.9201010798        5.3081169088
  C        21.5460775891       17.9471504449        2.8833290627
  C        21.5545325897       17.9441035505        1.4616034566
  C        22.7652142484       17.8396309837        0.7061963794
  C        34.4216899946       17.2171011948        5.9175495125
  C        35.7163107652       17.1493195867        5.1783757945
  C        35.9097866690       16.1770238367        4.1844565256
  C        37.0916918057       16.1481490306        3.4489309322
  C        38.1111078822       17.0918301059        3.6836884388
  C        37.9191119160       18.0444307619        4.7030837922
  C        36.7360954305       18.0773446779        5.4382389085
  C        39.3649794693       17.0910551143        2.8943776628
  C        39.3603454640       17.0961962973        1.4717412972
  C        38.1527577301       17.2064597176        0.7125809231
  C        20.3104858563       17.9614234037        0.7498675393
  C        20.3208254214       17.9375698329        3.5622117797
  C        34.4471377551       17.1871228736       10.1803778584
  C        35.7504107080       17.1159457275       10.9027881201
  C        35.9894274982       16.1107405100       11.8526707605
  C        37.1755002430       16.0993724901       12.5819053140
  C        38.1562168728       17.0891942330       12.3771020545
  C        37.9258693329       18.0690554140       11.3932998417
  C        36.7359334827       18.0877921189       10.6699246014
  C        39.4053723741       17.1082459084       13.1721667933
  C        39.3813546735       17.1040766194       14.5935193312
  C        38.1625670540       17.2066266456       15.3355621473
  C        35.1193854759       26.6398211206       15.2874154164
  C        35.1500973733       26.6547231703       12.4778234908
  C        26.5574462521       17.8233467436       10.3241649374
  C        25.2455797542       17.8747466474       11.0279883577
  C        24.9604525209       18.9181571828       11.9216903008
  C        23.7431201590       18.9485156458       12.5953831918
  C        22.7833767793       17.9375787479       12.3945900778
  C        23.0614363932       16.9176750468       11.4671750755
  C        24.2799472397       16.8839826378       10.7929058531
  C        21.5188617607       17.9293315368       13.1649459278
  C        21.5398761156       17.9352809082       14.5855335580
  C        22.7581551146       17.8364809934       15.3297612648
  C        14.0443122729       17.8315317119       10.2842445011
  C        15.3497847004       17.8952070503       11.0025956130
  C        15.6087873499       18.9101435334       11.9363717496
  C        16.8186669055       18.9363225627       12.6259516754
  C        17.8000980871       17.9502098972       12.4022453761
  C        17.5468530177       16.9603197578       11.4346565497
  C        16.3365283595       16.9298877552       10.7463051859
  C        19.0659205390       17.9367513196       13.1724408680
  C        19.0588785970       17.9403093100       14.5938945777
  C        17.8483648338       17.8410749503       15.3495236731
  C        46.8032573985       17.2184018433       10.1591457726
  C        45.5119368994       17.1543367772       10.9044174485
  C        45.3047041643       16.1722847803       11.8856551391
  C        44.1219792277       16.1498378754       12.6204374105
  C        43.1151994780       17.1097415448       12.3974155739
  C        43.3199448778       18.0719001457       11.3897482897
  C        44.5032936152       18.0978561574       10.6553935491
  C        41.8607773040       17.1146504969       13.1857888405
  C        41.8653573930       17.1038346363       14.6082456880
  C        43.0737669382       17.1971630309       15.3681251308
  C        20.3027166840       17.9559968722       15.3059329396
  C        20.2908843916       17.9101325740       12.4934828909
  C        46.7828570634       17.2307270367        5.8881320782
  C        45.4784465247       17.1211760106        5.1726377267
  C        45.2597555676       16.1177682678        4.2161667638
  C        44.0706353302       16.0845635261        3.4912892406
  C        43.0688818683       17.0515954846        3.7048615769
  C        43.2782231733       18.0253096159        4.6995698138
  C        44.4685417510       18.0647713632        5.4197046903
  C        41.8210703539       17.0670646632        2.9079030158
  C        41.8450508066       17.0780861319        1.4864958160
  C        43.0639833357       17.1824535987        0.7449299532
  C        46.1529512558       26.6370603313        0.7262239525
  C        46.1619935326       26.6559973173        3.5358582565
  C        14.0398410879       17.8289618857        5.7068034834
  C        15.3540398471       17.9000405440        5.0074784027
  C        15.6231690785       18.9238406606        4.0872865147
  C        16.8472692610       18.9631064644        3.4249536757
  C        17.8264693977       17.9774860907        3.6587187038
  C        17.5630855842       16.9797132081        4.6142229645
  C        16.3411596026       16.9402412486        5.2805089012
  C        19.0922246902       17.9614878353        2.8908786311
  C        19.0728821173       17.9519848209        1.4700291168
  C        17.8553218872       17.8462127569        0.7256649236
  C        28.8042829927       14.0795279817       10.3564147560
  C        28.2067691602       12.9017710706       11.0451029685
  C        28.9362342988       12.1795857140       12.0008695455
  C        28.3467633735       11.1039273384       12.6604478647
  C        27.0156219932       10.7288926794       12.3879892251
  C        26.3092961163       11.4320686467       11.3954524895
  C        26.8955507356       12.5074609919       10.7343429520
  C        26.3506437487        9.6480833724       13.1503863925
  C        26.3272771688        9.6749440316       14.5711134670
  C        26.8260449168       10.7875504875       15.3201792507
  C        32.1774901867       21.2394166191       10.1092571232
  C        32.7634813240       22.4014292317       10.8397686960
  C        32.0157669328       23.0594995223       11.8288339235
  C        32.5815410490       24.0971174109       12.5648060212
  C        33.9097427333       24.5062717748       12.3337298903
  C        34.6393268282       23.8640322084       11.3147034620
  C        34.0774790782       22.8208019449       10.5812022153
  C        34.5353581943       25.5833490749       13.1368003535
  C        34.5288814766       25.5547684214       14.5591820357
  C        34.0257275602       24.4378963726       15.2984495595
  C        25.7090284668        8.5980486418       15.2844418216
  C        25.7181131751        8.5976985447       12.4726860810
  C        32.0757754536       21.1954314697        5.8479152643
  C        32.6584992870       22.3611935931        5.1174328682
  C        31.9340427177       23.0086228630        4.1044684146
  C        32.5127720128       24.0480483767        3.3791295306
  C        33.8315539268       24.4687852935        3.6434866384
  C        34.5365058016       23.8359716006        4.6857584110
  C        33.9619737884       22.7939559263        5.4091418285
  C        34.4762844912       25.5496416269        2.8606242665
  C        34.4985579486       25.5378170645        1.4378902994
  C        34.0101344093       24.4302440459        0.6753673313
  C        40.6074397588       17.0742258960        0.7627287519
  C        40.5897842677       17.0921764127        3.5727335637
  C        28.6624220385       14.0630562123        5.8172899163
  C        28.0592909589       12.9178680810        5.0770462555
  C        28.8150837948       12.2049340087        4.1336777047
  C        28.2434530773       11.1493382073        3.4290571046
  C        26.9014352152       10.7796704642        3.6456402659
  C        26.1618529073       11.4780644639        4.6181489045
  C        26.7316270847       12.5356671563        5.3238457935
  C        26.2740928850        9.6869737992        2.8666527367
  C        26.2899316065        9.6948161198        1.4455217618
  C        26.8063062597       10.7980255033        0.6959599433
  C        18.1352984559        3.1808281899       10.3171380921
  C        17.4057650777        4.2779942261       11.0157677369
  C        16.3898351717        3.9994348602       11.9429761512
  C        15.7418685004        5.0392835597       12.6064597870
  C        16.0937742822        6.3830308483       12.3670343295
  C        17.0833861401        6.6527702434       11.4035863806
  C        17.7327151767        5.6155546373       10.7385477259
  C        15.4692376098        7.4906217640       13.1300816754
  C        15.4845640010        7.4900164290       14.5517946758
  C        16.1862339638        6.4964686994       15.3049373278
  C        42.9457479736       31.8594321574       10.0727772776
  C        43.6460827448       30.7716806601       10.8167412914
  C        44.5917053508       31.0930106049       11.8027046911
  C        45.1973540951       30.0874611614       12.5504146428
  C        44.8707248352       28.7344385671       12.3356643241
  C        43.9447887004       28.4200855123       11.3225676948
  C        43.3360234685       29.4252388364       10.5744919286
  C        45.4882849536       27.6551328594       13.1388600549
  C        45.4924619355       27.6807402627       14.5605527892
  C        44.8054131773       28.6888296256       15.3071557319
  C        14.8555957876        8.5625231364       15.2641386642
  C        14.8738778112        8.5623188846       12.4514860241
  C        42.9463709784       31.9615784947        5.8090140137
  C        43.6915057400       30.8853601685        5.0954557604
  C        44.6563089723       31.1912512996        4.1233763966
  C        45.2777579726       30.1716475228        3.4056009297
  C        44.9536664702       28.8213819685        3.6430120942
  C        44.0199234428       28.5237179394        4.6535329211
  C        43.3917379123       29.5405041543        5.3657559228
  C        45.5627040158       27.7239665927        2.8577840437
  C        45.5329825385       27.7172267421        1.4364937457
  C        44.8266866066       28.7074784001        0.6835483010
  C        35.1062628719       26.6297809462        0.7332966731
  C        35.0882586159       26.6086587267        3.5437792507
  C        18.1484192183        3.2467624965        5.7066346104
  C        17.4298020375        4.3435931764        4.9971940262
  C        16.4144040395        4.0522843009        4.0738681166
  C        15.7660060326        5.0828883833        3.3984926864
  C        16.1208198020        6.4281117887        3.6209992661
  C        17.1124876946        6.7115502184        4.5779324047
  C        17.7602124643        5.6826552048        5.2576908265
  C        15.4901611160        7.5237697833        2.8485938032
  C        15.4958853078        7.5071067275        1.4274505251
  C        16.1925938733        6.5053679573        0.6807504172
  H        10.6722668379       12.4661409546        3.9040481458
  H        11.6943401507       10.5512470718        2.6622280620
  H        15.3909134144       11.1675316808        4.7729202130
  H        14.3505775099       13.0703137376        6.0182241106
  H        13.3756207623       11.6308188453        1.2011920510
  H        50.3223524231       22.7483663429        3.9867520703
  H        49.3190941419       24.6226798576        2.6806123912
  H        45.6419248244       24.1614597824        4.8640876487
  H        46.6628942062       22.2906274077        6.1724464757
  H        47.6293663855       23.5756840459        1.2461861184
  H        14.8718238304        8.5879545331        4.6085118563
  H        50.2865185646       22.7021902399       12.0607054032
  H        49.2685005900       24.5750070779       13.3607896565
  H        45.6103815548       24.1096326552       11.1454644102
  H        46.6525235770       22.2543906489        9.8310999748
  H        47.6073057790       23.5515959211       14.7968884217
  H        40.6419647540       17.1126857552       11.4187338880
  H        48.6870446282       14.0950474500        7.8000141853
  H        10.6810477313       12.4672505327       12.0938982497
  H        11.6888709795       10.5251004409       13.2975625924
  H        15.3922191255       11.1570195087       11.2044207289
  H        14.3641399837       13.0856077719        9.9891007484
  H        13.3750251603       11.6216437009       14.7530605260
  H        47.9301139763       14.2181032793        9.7108810886
  H        47.7799133419       14.3736668722        6.4953278751
  H        49.0828042819       18.5523531579       10.8671533977
  H        10.4158612818       14.1343219628        7.9987779535
  H        24.4757368703        3.0254694121        3.9123471611
  H        25.6047199573        4.8843044785        2.6732567104
  H        23.2043474604        7.7492528613        4.8013082313
  H        22.0958452744        5.8810986900        6.0441639319
  H        23.8074370918        5.7773412559        1.2268175642
  H        36.3709087347       32.1860295890        3.9684353635
  H        35.2375028767       30.3665705276        2.6925569702
  H        37.4980362678       27.4354149933        4.8833465610
  H        38.6115677879       29.2678302778        6.1686923300
  H        36.9985808370       29.4489247424        1.2692781452
  H        25.6731803157        8.6142541953        4.6273395431
  H        36.4481168531       32.2403514503       12.1085670240
  H        35.3265808105       30.4259098611       13.3976664233
  H        37.5085017499       27.4847794015       11.1399746672
  H        38.6046943080       29.3111936736        9.8377408629
  H        37.0169380120       29.4683892506       14.8218779864
  H        46.1089088868       26.5874668653       11.3855487845
  H        44.6682316085       35.1161929119        7.8141306259
  H        24.4570203494        3.0299384931       12.0580176763
  H        25.6057976925        4.8665529900       13.3001482678
  H        23.1936846709        7.7629920886       11.2299654509
  H        22.0571339903        5.9147143163        9.9866645770
  H        23.8129045953        5.7761585193       14.7771386855
  H        44.9536575355       34.3899177769        9.6947508766
  H        44.9018973795       34.2068225664        6.4907665029
  H        40.6650880793       33.2083423420       10.8527979910
  H        23.1500431582        1.9578048272        8.0031560334
  H        25.7584224320       19.6714118787        3.9684523145
  H        23.5976659512       19.7317667590        2.7210848727
  H        22.3119662013       16.1873385224        4.7899262814
  H        24.4805655675       16.1390587385        6.0354130180
  H        23.7054349952       17.7289429096        1.2386475178
  H        35.1151947135       15.4587614942        3.9953044058
  H        37.2397707556       15.3854352858        2.6875686591
  H        38.6966869293       18.7824287051        4.8890962416
  H        36.5732486416       18.8284976593        6.2077445457
  H        37.2116739972       17.3233083378        1.2423692143
  H        20.3240991787       17.9634198877        4.6504291129
  H        35.2320080239       15.3473255527       12.0144678779
  H        37.3570056070       15.3178466567       13.3165708494
  H        38.6764414722       18.8396393911       11.2297133105
  H        36.5373737827       18.8618732665        9.9323007798
  H        37.2289900443       17.3215333685       14.7921156103
  H        35.1223937953       26.6811306348       11.3900937637
  H        28.5077701566       21.0950711160        7.8862096109
  H        25.7021871028       19.6997434417       12.0692716180
  H        23.5202091105       19.7588793680       13.2861245835
  H        22.3262766413       16.1312423899       11.3094093735
  H        24.5132239516       16.0861495675       10.0917840207
  H        23.6929838058       17.7246493036       14.7883178804
  H        28.9574213903       21.7328280067        9.7142363367
  H        29.1797466000       21.7123245212        6.5212345910
  H        32.1762203500       18.6277722020       10.9005050181
  H        27.3496266808       19.0701981899        8.0786693946
  H        14.8512241319       19.6718507602       12.1063589510
  H        17.0187075143       19.7274522584       13.3453801778
  H        18.2966059694       16.1925163126       11.2551274722
  H        16.1257759957       16.1533408893       10.0149341589
  H        16.9081688359       17.7266194423       14.8180471110
  H        46.0875952210       15.4393029466       12.0657825876
  H        43.9632057046       15.3796391220       13.3720448084
  H        42.5519803579       18.8219569766       11.2121907457
  H        44.6759990208       18.8551816240        9.8942322737
  H        44.0155886252       17.3140636128       14.8396833343
  H        20.2883911977       17.9277657004       11.4051204627
  H        46.0375395399       15.3777449168        4.0418545469
  H        43.9055301770       15.3052826852        2.7504023795
  H        42.5109732348       18.7772728384        4.8719128462
  H        44.6495909432       18.8358002343        6.1646413693
  H        43.9985111458       17.2867788699        1.2885716814
  H        46.1988063246       26.6826035071        4.6233022893
  H        52.7411584534       21.0626676124        8.1945977774
  H        14.8637718603       19.6820813581        3.9098262968
  H        17.0588190886       19.7599841694        2.7152438269
  H        18.3124364650       16.2127505785        4.7987911650
  H        16.1200201302       16.1594810194        6.0041672515
  H        16.9203030027       17.7357082047        1.2666811976
  H        52.3222864280       21.6736445106        6.2947761033
  H        52.0135424648       21.7026262707        9.4954825964
  H        49.0669859600       18.6076692018        5.2042364067
  H        13.2471094113       19.0165397500        7.9761265484
  H        29.9587338539       12.4822365678       12.2161353458
  H        28.9123154986       10.5428123889       13.4011775784
  H        25.2808497562       11.1510741043       11.1783712802
  H        26.3475882038       13.0724892490        9.9843634501
  H        27.1982043994       11.6550016678       14.7832585062
  H        30.9963556918       22.7306324544       12.0174411600
  H        31.9954280842       24.6055049842       13.3272528144
  H        35.6674844577       24.1682921319       11.1296095695
  H        34.6485442181       22.3020434763        9.8146448156
  H        33.6764959376       23.5653361729       14.7537224178
  H        25.7542498598        8.5790880613       11.3848809231
  H        30.9219443232       22.6735768634        3.8889010399
  H        31.9425672072       24.5494294967        2.6001484702
  H        35.5571253137       24.1476829178        4.8980237494
  H        34.5147935824       22.2842150189        6.1946635790
  H        33.6489139954       23.5516871069        1.2023417337
  H        40.5834070431       17.0604149917        4.6606168349
  H        32.5196401892       14.1364351571        8.1774360423
  H        29.8532783029       12.4860699551        3.9732905967
  H        28.8352745340       10.5925520552        2.7058109993
  H        25.1234481235       11.2025662284        4.7904631170
  H        26.1591029826       13.0918016507        6.0624357183
  H        27.1622873554       11.6735635313        1.2311648352
  H        33.2898883764       14.2307750891        6.3496491607
  H        33.4092043733       14.3798032952        9.5333566814
  H        32.1428045473       18.5613581294        5.1699305848
  H        30.1886157560       14.1362791140        8.0740008029
  H        16.1178506227        2.9628724067       12.1291611594
  H        14.9522712668        4.8197334017       13.3219035840
  H        17.3658811272        7.6856793260       11.2107634088
  H        18.5149673533        5.8183329237       10.0109605475
  H        16.7527648599        5.7391313983       14.7714067952
  H        44.8280643745       32.1400936658       11.9767885444
  H        45.9372807270       30.3411951559       13.3063069925
  H        43.6819045333       27.3780374420       11.1526139719
  H        42.5992567660       29.1899639245        9.8099493869
  H        44.2300958206       29.4366037136       14.7688164025
  H        14.8501159891        8.5454825685       11.3632698306
  H        44.9000546796       32.2339227378        3.9321315523
  H        46.0248281937       30.4128381577        2.6525134753
  H        43.7626772379       27.4840136966        4.8448543294
  H        42.6450189460       29.3177798079        6.1240090139
  H        44.2682150131       29.4703854906        1.2181454900
  H        35.0436492916       26.6227915073        4.6311874522
  H        36.6052125749       35.1337842249        8.1807581165
  H        16.1432392652        3.0126950188        3.9043302129
  H        14.9735166133        4.8560049654        2.6886002080
  H        17.3961895375        7.7470079778        4.7545693079
  H        18.5432543746        5.8931136290        5.9822762944
  H        16.7641204599        5.7551955325        1.2191902812
  H        36.2787893977       34.4819578254        6.2732703453
  H        36.3809789233       34.2090633354        9.4998903172
  H        40.5796747992       33.2022224256        5.1538770386
  H        17.4707810956        1.9469438041        7.9740297180
  H        28.6331468591       18.9748861883       12.2027132401
  H        28.7475534982       18.8651565690        3.7376401963
  H        30.7775268495       15.3214232331        3.8422279350
  H        32.3617496029       16.1542798818       12.2865530469
  H        18.8537375768        0.8689769728       12.3352392724
  H        40.5283017152       35.2289368667        3.9521448393
  H        42.3237186189       34.4188812138        3.5902677180
  H        22.0873860297        0.6922045726       12.3515763363
  H        11.5966277996       18.7128943497       12.3825459520
  H        52.2647429799       18.4312518277        3.6774854443
  H        49.2552195153       16.4764047514        3.5840638752
  H        10.1503363000       15.7982427658       12.2925425597
  H        50.8498812509       17.6926579211        3.9540286638
  H        10.0460226994       17.3947268105       12.0519261689
  H        20.2151061073        0.0020589685       12.0419307370
  H        39.1836943494       36.1243035429        3.6864332863
 Ni        30.6463160852       17.5510670594        2.9987067292
 Ni        31.6199077646       17.5244111568       14.9859991833
 Ni        30.1401173702       17.7413003380        0.6661244539
 Ni        30.6488569415       17.7520674476       12.8284770792
  O        10.6497790522       14.3652254064        5.4857971639
  O        12.6130117821       14.6574141147        6.5838354011
  O        49.1476375340       16.8459439470        7.9896846473
  O        50.3500927906       20.9362807088        5.6482669038
  O        48.3484586857       20.5932307732        6.6659407274
  O        11.0508348516       17.0541219328        6.5005985869
  O        50.3206643677       20.8816751644       10.4068665814
  O        48.3466075213       20.5866480886        9.3270234149
  O        49.5433413760       18.2484542964       10.0683084549
  O        12.3587538084       18.6246639698        7.9996594390
  O        48.6931647826       14.1486472073        6.7512895954
  O         8.2098106051       14.2104746334        9.3225478419
  O        10.7352751777       14.5068051849       10.6643470124
  O        12.5716992239       14.5827329794        9.3285522670
  O        22.8441019463        2.0420029321        5.4875274169
  O        21.6045069839        3.5916637732        6.5898924010
  O        42.0579405449       34.1370785018        7.9790487626
  O        37.9812698540       33.1353987599        5.5719947286
  O        39.2175474536       31.5750089418        6.6657165855
  O        20.3082664346        1.0394858482        6.5018824975
  O        38.0240650289       33.1846316816       10.4156562712
  O        39.2181538494       31.5828473423        9.3273928839
  O        40.6521536749       33.7690752079       10.0602047909
  O        18.2556626323        1.3760550128        7.9967561497
  O        44.6222396650       35.1005361328        6.7588391264
  O        24.2055015712       -0.0001110397        9.3207624536
  O        22.7530016531        2.0562277554       10.5827983111
  O        21.6241915839        3.5953672997        9.3418381239
  O        27.4550929345       18.6942151736        5.4885500596
  O        26.6897009563       16.9185257506        6.6711640670
  O        30.6348426294       19.3492266203        8.0043243979
  O        33.5455891064       16.3310974236        5.6602595295
  O        34.2675970672       18.1844083619        6.7438648327
  O        29.5325749485       17.0161918736        6.5777779321
  O        33.5847941631       16.2653717084       10.4147660056
  O        34.2654685448       18.1790501775        9.4043870732
  O        31.6448007344       18.3166608647       10.1485513659
  O        30.2888458726       15.1018100692        8.0726850067
  O        28.5512773760       21.0297293980        6.8201400702
  O        28.5090071029       20.9613035536        9.3282077688
  O        27.4496052656       18.6772273418       10.6563485222
  O        26.6875541452       16.9289041408        9.4166669073
  O        13.1461681733       18.6938663585       10.5861734378
  O        13.9176327905       16.9159086496        9.4038930692
  O        50.5956083128       19.3502961892        8.0205322656
  O        47.6822709751       16.3273366837       10.4175820406
  O        46.9506081626       18.1757647332        9.3252932101
  O        11.0688512214       17.0159825793        9.4895784895
  O        47.6746132197       16.3359106528        5.6527476569
  O        46.9247862428       18.2358636340        6.6631093128
  O        49.5686194178       18.3178067457        5.9822225770
  O        10.3186494583       15.1001827595        7.9970797429
  O        52.6706772395       21.0280017969        9.2418032779
  O        12.1468178980       20.8914288205        6.6733122293
  O        13.1047315036       18.6143180412        5.3262911522
  O        13.9553141803       16.9864680224        6.6653938610
  O        29.9924216613       14.4318372198       10.6592982176
  O        28.0657341523       14.6584900368        9.4859193119
  O        32.0746136211       16.8549560934        8.0643546161
  O        30.9564266536       20.9536919902       10.3332202957
  O        32.9561439519       20.5882410659        9.3255452772
  O        29.5636884180       17.0723822574        9.5750803104
  O        30.8586939760       20.8792491695        5.5907308798
  O        32.8582151533       20.5819926892        6.6564295645
  O        31.6108259455       18.2394410137        5.9152006140
  O        28.2337958922       18.6696964141        8.0662421834
  O        32.4938743600       14.2071334068        9.2473489876
  O        32.4021899766       14.2103740064        6.7449757089
  O        29.8379916884       14.4354995076        5.4858852500
  O        27.9600443877       14.5847366636        6.7512939536
  O        17.8891819222        1.9665204175       10.6628485705
  O        18.9561142306        3.5271379447        9.4080541832
  O        39.1684606185       34.1385390989        7.9972192647
  O        43.2801733271       33.0587629708       10.3317226163
  O        42.0343544311       31.5064119519        9.2415684687
  O        20.3173193585        1.0362565913        9.4802420866
  O        43.2761201959       33.1824719701        5.5748826379
  O        42.0052134902       31.5840878686        6.5830011713
  O        40.5790051849       33.7750155050        5.9359306064
  O        22.3671095185        1.3843135382        7.9979624495
  O        36.6727839343       35.0996857071        9.2333553424
  O        16.4456308385        0.0640040453        6.6681723092
  O        17.9363654339        2.0431582062        5.3264195740
  O        18.9188366816        3.5931290920        6.6658683647
  O        29.6544747440       18.8325313830        4.0891929375
  O        29.5783452071       19.1146656975       11.9927552392
  O        31.2977120553       16.1097677949        4.0906792003
  O        31.4332476029       16.1928921755       11.9990295720
  O        39.4568612718       35.2436995002        4.0020065939
  O        19.1415584335        0.0044803056       11.9905253041
  O        41.9694492441       35.1726469327        4.0871338783
  O        21.6912388803       -0.0694172148       11.8960418586
  O        51.3648186671       18.6143762969        4.0052600005
  O        10.7508441162       18.7472189419       11.9050197204
  O        50.0794616827       16.4127636344        4.0917200208
  O         9.5243925609       16.4831142688       11.9911900454
 Zr         9.2966691562       16.0528533321        6.1821909529
 Zr        49.8361747027       16.0068763390        9.7466039632
 Zr        22.0732486334        0.0296801928        6.1892551158
 Zr        42.4608741598       35.1533564953        9.8010336282
 Zr        29.5492209874       19.0620173872        6.2434144081
 Zr        29.5618086465       19.1961563358        9.8067149075
 Zr        11.0371884456       19.0524934860        9.8277036727
 Zr        11.0433110659       19.1552487808        6.2511481126
 Zr        31.3322368871       16.0612889573        9.8377364401
 Zr        31.3569475378       15.9893739278        6.2735967194
 Zr        18.6011221236       -0.0017667066        9.7636721136
 Zr        18.5065488301       -0.0082081344        6.2135406990
 Zr        12.3008430065       16.3231832434        7.9904272865
 Zr        48.6159353132       18.8330032640        8.0100308758
 Zr        20.3148838984        2.4731514223        7.9907042042
 Zr        40.6428579772       32.6867695994        7.9782318738
 Zr        28.3166081184       16.3244480737        8.0823867501
 Zr        32.6044621103       18.8285888334        8.0334482191
  H        29.6178598416       16.9007700785        1.9431037881
  H        31.9412999103       18.3492303713       13.6351076983
  H        30.6898567129       16.4770997262       15.6756817535
  H        30.8519956298       18.6169719837        1.8086877240
