     564
 i =      170, E =     -4680.1472600363
  C        11.8585446502       14.0534119162        5.7415347694
  C        12.4559021073       12.8903996946        5.0232908090
  C        11.7042900159       12.1717699411        4.0813330248
  C        12.2805880257       11.1095236243        3.3889831612
  C        13.6210360426       10.7393593808        3.6169504696
  C        14.3540721689       11.4425781107        4.5907933810
  C        13.7812534758       12.5075671858        5.2823327200
  C        14.2604832879        9.6486593914        2.8435373388
  C        14.2556192534        9.6565012649        1.4218284620
  C        13.7424871011       10.7586188184        0.6678873514
  C        49.1265466505       21.2334223186        5.8797465054
  C        48.5497095210       22.4012763733        5.1527532889
  C        49.2996834284       23.0685062083        4.1716364856
  C        48.7327152123       24.1075900442        3.4384203346
  C        47.4021751115       24.5092334686        3.6670627722
  C        46.6713145940       23.8604952068        4.6807374021
  C        47.2337788671       22.8156195105        5.4101124571
  C        46.7719381347       25.5868808853        2.8697563206
  C        46.7609655621       25.5572197649        1.4480030080
  C        47.2609043398       24.4421207736        0.7045256037
  C        14.8594495071        8.5701014705        0.7085550383
  C        14.8913405385        8.5967323930        3.5201712691
  C        49.1128409382       21.2034340794       10.1453509315
  C        48.5274333898       22.3647307453       10.8724447678
  C        49.2665815265       23.0253069380       11.8655261503
  C        48.6902225586       24.0598225948       12.5969917215
  C        47.3598631344       24.4567176436       12.3586171301
  C        46.6395601028       23.8119692290       11.3349039036
  C        47.2131340347       22.7761015435       10.6030898014
  C        46.7214026770       25.5316367596       13.1496651775
  C        46.7331747909       25.5279943649       14.5713666319
  C        47.2486054523       24.4287879525       15.3277645153
  C        40.6180930503       17.0768843644       15.3166871107
  C        40.6363445975       17.1248934481       12.5061857023
  C        11.8827664614       14.0862960394       10.2854280323
  C        12.4717288476       12.9102603637       10.9894674421
  C        11.7142214593       12.1775721137       11.9160016881
  C        12.2805537420       11.0949917854       12.5844121943
  C        13.6191406432       10.7206196105       12.3522301828
  C        14.3570041109       11.4355437167       11.3908476855
  C        13.7918322959       12.5168264565       10.7181428681
  C        14.2526003758        9.6238640919       13.1227174969
  C        14.2514579369        9.6439542299       14.5445592725
  C        13.7417828552       10.7529949807       15.2916300008
  C        22.5064150410        3.2428016658        5.7485447334
  C        23.2099295396        4.3460368343        5.0367354465
  C        24.2087247364        4.0634701302        4.0934166060
  C        24.8298476592        5.1008529652        3.4033472329
  C        24.4664467250        6.4419242719        3.6363864053
  C        23.4924695568        6.7161698894        4.6136180506
  C        22.8676856655        5.6807496798        5.3030449837
  C        25.0746043503        7.5466780322        2.8619760553
  C        25.0678900171        7.5351640894        1.4408672734
  C        24.3766961074        6.5327520450        0.6893889338
  C        38.3003200624       31.9276611413        5.8483813898
  C        37.5637595562       30.8406176628        5.1388585131
  C        36.5987993014       31.1512898865        4.1679741629
  C        35.9692846433       30.1368498351        3.4515242355
  C        36.2887864269       28.7842417402        3.6821958657
  C        37.2255974238       28.4809179379        4.6886253615
  C        37.8588785398       29.4944109951        5.4047857416
  C        35.6718380394       27.6983151645        2.8848999221
  C        35.6963088804       27.7156076692        1.4626253867
  C        36.4037673477       28.7158446996        0.7240861210
  C        25.6998194843        8.6039684459        0.7271321105
  C        25.6569021459        8.6258840920        3.5377803012
  C        38.3255370737       31.9606369446       10.1565079457
  C        37.5956947451       30.8896724286       10.8969075230
  C        36.6608088706       31.2038709868       11.8957447702
  C        36.0384625472       30.1902227606       12.6224045985
  C        36.3355653818       28.8345183838       12.3760107492
  C        37.2489416128       28.5303096672       11.3474959180
  C        37.8730757813       29.5407163611       10.6214145418
  C        35.7156581166       27.7400134220       13.1605567793
  C        35.7181401411       27.7371285213       14.5834451000
  C        36.4131558302       28.7268184822       15.3471889304
  C        46.1351581265       26.6206332768       15.2814880930
  C        46.0874296407       26.5799755306       12.4735971366
  C        22.4651800579        3.2540314726       10.2522388926
  C        23.1715713970        4.3600000645       10.9647596746
  C        24.1833633721        4.0688397245       11.8934215643
  C        24.8219727478        5.0961840536       12.5829589572
  C        24.4676131648        6.4424430168       12.3660594742
  C        23.4804544548        6.7270995859       11.4041599341
  C        22.8376877592        5.7000421672       10.7143117088
  C        25.1006256488        7.5363404546       13.1427047505
  C        25.0817836960        7.5292009277       14.5645813214
  C        24.3806033361        6.5317466560       15.3130103366
  C        26.5590116434       17.8266477145        5.7868629523
  C        25.2593690870       17.8891851635        5.0597523817
  C        25.0060464834       18.9063379878        4.1264515859
  C        23.7984215142       18.9383222373        3.4336040052
  C        22.8121327331       17.9566478427        3.6543227413
  C        23.0606704584       16.9624751832        4.6189622837
  C        24.2695900760       16.9254321047        5.3100757236
  C        21.5463553327       17.9531300901        2.8828352312
  C        21.5548667616       17.9496766619        1.4610035188
  C        22.7653065192       17.8430985944        0.7057094926
  C        34.4224599669       17.2159995904        5.9175667236
  C        35.7168127122       17.1469119790        5.1790911800
  C        35.9061814787       16.1796587927        4.1794420571
  C        37.0878698843       16.1503008692        3.4437480799
  C        38.1110869456       17.0886477350        3.6836195399
  C        37.9232063369       18.0356285060        4.7091944028
  C        36.7405369757       18.0690529117        5.4447022134
  C        39.3644372853       17.0881584517        2.8937391454
  C        39.3596211290       17.0931277119        1.4709437836
  C        38.1522495755       17.2043386197        0.7114098526
  C        20.3109241832       17.9673549591        0.7490491059
  C        20.3208977186       17.9437183866        3.5614889011
  C        34.4476879135       17.1871097779       10.1804715814
  C        35.7506899803       17.1134612446       10.9021509314
  C        35.9870728614       16.1090173795       11.8534971582
  C        37.1732518973       16.0953472517       12.5823307472
  C        38.1566351320       17.0820395879       12.3756703826
  C        37.9291280813       18.0607373943       11.3899623921
  C        36.7390574170       18.0819024895       10.6670235129
  C        39.4054134495       17.1000505949       13.1711855801
  C        39.3810394870       17.0971840729       14.5925984863
  C        38.1622473392       17.2019964765       15.3343645570
  C        35.0813730420       26.6614039411       15.2882165956
  C        35.1254361227       26.6680717209       12.4786134324
  C        26.5598579406       17.8254698074       10.3245581030
  C        25.2472047486       17.8785995968       11.0269267604
  C        24.9661643843       18.9172909352       11.9273963934
  C        23.7486873513       18.9486199757       12.6007255563
  C        22.7844917501       17.9431389536       12.3933611514
  C        23.0582731201       16.9287374789       11.4585199945
  C        24.2769073392       16.8940935810       10.7845578934
  C        21.5201267271       17.9344675081       13.1639170540
  C        21.5407450304       17.9397444777       14.5846787580
  C        22.7585703999       17.8391069152       15.3292959115
  C        14.0445807513       17.8318151724       10.2840656862
  C        15.3502824536       17.8963716188       11.0019904895
  C        15.6091379147       18.9122121321       11.9348513387
  C        16.8191975256       18.9395460687       12.6240722962
  C        17.8010190726       17.9536474779       12.4011136130
  C        17.5479208722       16.9628401120       11.4344013155
  C        16.3374405120       16.9313107276       10.7462897375
  C        19.0669103915       17.9412964291       13.1713496690
  C        19.0596830063       17.9454485683       14.5928505730
  C        17.8490584079       17.8466378952       15.3483664314
  C        46.8032397685       17.2179375414       10.1589200401
  C        45.5118904302       17.1523647590       10.9039289472
  C        45.3062850563       16.1700848878       11.8853066300
  C        44.1236260102       16.1456804453       12.6200721472
  C        43.1152214215       17.1037878983       12.3968687055
  C        43.3183467266       18.0661244867       11.3890007039
  C        44.5016612372       18.0940808964       10.6546442104
  C        41.8608249101       17.1071688227       13.1852294039
  C        41.8651495395       17.0972046757       14.6077002512
  C        43.0734185996       17.1915876157       15.3676131688
  C        20.3034556733       17.9613391121       15.3050099172
  C        20.2919513586       17.9152529561       12.4925434764
  C        46.7827073815       17.2306718268        5.8880093506
  C        45.4782699181       17.1206534339        5.1724617506
  C        45.2598591999       16.1168034616        4.2163449541
  C        44.0707493056       16.0828223720        3.4914480693
  C        43.0686137396       17.0496326904        3.7043896715
  C        43.2777269967       18.0238590606        4.6986886207
  C        44.4680247454       18.0640589482        5.4189154415
  C        41.8206859949       17.0642412219        2.9074073743
  C        41.8445021393       17.0742983515        1.4859505527
  C        43.0634451145       17.1781957680        0.7444320399
  C        46.1529478253       26.6370841741        0.7262414221
  C        46.1619930771       26.6560039121        3.5358749898
  C        14.0400167946       17.8293414790        5.7067438969
  C        15.3541786770       17.9015302187        5.0072930002
  C        15.6225938020       18.9264263919        4.0880429287
  C        16.8465492110       18.9672030431        3.4254705363
  C        17.8265089275       17.9820323978        3.6579599654
  C        17.5637236375       16.9830159052        4.6123932945
  C        16.3419650165       16.9420485159        5.2789935972
  C        19.0923461919       17.9674610413        2.8899996551
  C        19.0731685840       17.9582526761        1.4690728831
  C        17.8556919649       17.8524400565        0.7245445424
  C        28.8093681685       14.0814758963       10.3602690690
  C        28.2122502919       12.9032167870       11.0484127185
  C        28.9421474706       12.1772875699       12.0010051087
  C        28.3522209248       11.1008582554       12.6589546122
  C        27.0201038052       10.7283564273       12.3878160895
  C        26.3132559100       11.4349567426       11.3981437049
  C        26.8999165461       12.5112804853       10.7389264140
  C        26.3548336247        9.6469986499       13.1493464576
  C        26.3313927510        9.6736434335       14.5700525364
  C        26.8295927348       10.7864758259       15.3191303702
  C        32.1760967406       21.2387344459       10.1103412803
  C        32.7567154870       22.4032610813       10.8413611849
  C        32.0007943624       23.0634556988       11.8229299242
  C        32.5579505330       24.1064751539       12.5576852401
  C        33.8864417648       24.5187562731       12.3340708688
  C        34.6246725034       23.8738386792       11.3228300014
  C        34.0709400312       22.8258535503       10.5896385255
  C        34.5047276269       25.6000402981       13.1375227300
  C        34.4892452588       25.5768627668       14.5601580719
  C        33.9780853078       24.4642516530       15.3002745137
  C        25.7129292929        8.5967666492       15.2831889123
  C        25.7221219663        8.5969347776       12.4713308272
  C        32.0729545794       21.1975850711        5.8476997975
  C        32.6484214298       22.3682294033        5.1199691494
  C        31.9143327664       23.0202740130        4.1166720958
  C        32.4848823653       24.0646796495        3.3921669284
  C        33.8055290126       24.4855204990        3.6467197082
  C        34.5201028843       23.8483960402        4.6799979117
  C        33.9533954427       22.8019814637        5.4033578043
  C        34.4439952525       25.5693957917        2.8626177434
  C        34.4585942468       25.5613004556        1.4396015193
  C        33.9625766794       24.4572822554        0.6771349491
  C        40.6068727092       17.0697823114        0.7620865946
  C        40.5893891869       17.0892761017        3.5720723493
  C        28.6629548555       14.0629705339        5.8167906989
  C        28.0604700825       12.9178542755        5.0762727769
  C        28.8160086085       12.2063323908        4.1315854895
  C        28.2448672447       11.1504718484        3.4270027172
  C        26.9034702811       10.7789984420        3.6447005000
  C        26.1641805726       11.4760807769        4.6184053023
  C        26.7334788399       12.5339027602        5.3241452705
  C        26.2764393190        9.6861834481        2.8655359356
  C        26.2927209419        9.6939470142        1.4443744853
  C        26.8088662533       10.7973333264        0.6948858776
  C        18.1353014380        3.1808632638       10.3171314437
  C        17.4056827952        4.2780026025       11.0156809043
  C        16.3898447989        3.9993971325       11.9429814015
  C        15.7418325463        5.0392089709       12.6064733428
  C        16.0936402774        6.3829781499       12.3669915201
  C        17.0831286792        6.6527689702       11.4034224327
  C        17.7324917797        5.6155800705       10.7383811755
  C        15.4690927833        7.4905584452       13.1300416654
  C        15.4844541141        7.4899568051       14.5517563765
  C        16.1860910458        6.4963950505       15.3049139970
  C        42.9456479348       31.8594239014       10.0728273665
  C        43.6459695451       30.7716732687       10.8167755032
  C        44.5915723605       31.0929849917       11.8027730836
  C        45.1972484166       30.0874307337       12.5504496874
  C        44.8706757483       28.7343984018       12.3356582377
  C        43.9447928730       28.4200600151       11.3225054766
  C        43.3359973119       29.4252181493       10.5744599180
  C        45.4882388967       27.6551036531       13.1388637257
  C        45.4924298960       27.6807428559       14.5605584339
  C        44.8053798326       28.6888269630       15.3071675528
  C        14.8555015974        8.5624643629       15.2641160395
  C        14.8737486034        8.5622724801       12.4514536640
  C        42.9463262789       31.9615597301        5.8090185302
  C        43.6915134615       30.8853689332        5.0955186924
  C        44.6561926328       31.1912674776        4.1233134132
  C        45.2776616639       30.1716744376        3.4055460173
  C        44.9536883438       28.8213933419        3.6430559094
  C        44.0200911493       28.5237203616        4.6537151998
  C        43.3918895810       29.5405006946        5.3659312540
  C        45.5627108284       27.7239853466        2.8578082448
  C        45.5329797189       27.7172517284        1.4365148079
  C        44.8266614493       28.7074813298        0.6835612834
  C        35.0683771006       26.6518588048        0.7343372392
  C        35.0622337726       26.6250696868        3.5451684474
  C        18.1485165131        3.2468203493        5.7065594525
  C        17.4298403558        4.3436325314        4.9971867355
  C        16.4145366042        4.0522900801        4.0737616977
  C        15.7660642272        5.0828729053        3.3984318692
  C        16.1207720741        6.4281175053        3.6209986681
  C        17.1122825376        6.7115878908        4.5780908887
  C        17.7600750988        5.6827126775        5.2578088141
  C        15.4901080080        7.5237631672        2.8485859874
  C        15.4958074724        7.5070707133        1.4274407194
  C        16.1924915427        6.5053233874        0.6807281562
  H        10.6722687060       12.4661473736        3.9040926530
  H        11.6943317351       10.5512486511        2.6622561429
  H        15.3909684187       11.1676500865        4.7728021051
  H        14.3506308422       13.0704289760        6.0181143104
  H        13.3756587127       11.6308452504        1.2011560212
  H        50.3223870231       22.7484740027        3.9868766708
  H        49.3191277991       24.6227909657        2.6807462297
  H        45.6418449065       24.1613152291        4.8639571999
  H        46.6628144840       22.2904859941        6.1723194971
  H        47.6294270247       23.5757395517        1.2462107526
  H        14.8717978840        8.5879926096        4.6084824846
  H        50.2865784442       22.7023673771       12.0605329126
  H        49.2685510150       24.5751903760       13.3606022437
  H        45.6102253052       24.1093684473       11.1457009858
  H        46.6523716631       22.2541122165        9.8313618606
  H        47.6073713228       23.5516422193       14.7969036686
  H        40.6423530740       17.1033264252       11.4180458366
  H        48.6870575646       14.0950523009        7.8000264385
  H        10.6809412067       12.4671302407       12.0937083629
  H        11.6887536223       10.5249865019       13.2974105495
  H        15.3922233067       11.1571094278       11.2045587801
  H        14.3641573712       13.0856924221        9.9892120943
  H        13.3750206899       11.6216451225       14.7530123832
  H        47.9301192607       14.2182150408        9.7108162233
  H        47.7799222130       14.3737212004        6.4953409004
  H        49.0827258966       18.5522678144       10.8671662527
  H        10.4158830182       14.1343098855        7.9987562979
  H        24.4768945325        3.0248796813        3.9131183958
  H        25.6067958311        4.8828298305        2.6738251247
  H        23.2043969582        7.7490299144        4.7979178261
  H        22.0950822265        5.8817366057        6.0411209919
  H        23.8109500837        5.7760033593        1.2250318538
  H        36.3659024209       32.1961971535        3.9770708668
  H        35.2206247310       30.3838880319        2.7019670279
  H        37.4816832132       27.4399560321        4.8750474133
  H        38.6062328544       29.2654868882        6.1609437277
  H        36.9716633562       29.4641675933        1.2692070604
  H        25.6748217393        8.6134679559        4.6260310605
  H        36.4417539313       32.2494485419       12.1002540048
  H        35.3084256582       30.4421946828       13.3884633550
  H        37.4922016027       27.4885800242       11.1488830943
  H        38.5994589892       29.3080127129        9.8464272814
  H        36.9892900454       29.4832077986       14.8220584819
  H        46.1088109140       26.5873849228       11.3855592834
  H        44.6682285224       35.1161611297        7.8141490204
  H        24.4583280541        3.0292961999       12.0566552958
  H        25.6088237202        4.8653462119       13.2979100381
  H        23.1969957168        7.7629039087       11.2289224759
  H        22.0589201391        5.9151815721        9.9863099880
  H        23.8171317248        5.7747544680       14.7753940631
  H        44.9536159783       34.3898739840        9.6947177556
  H        44.9019332953       34.2068496428        6.4907334987
  H        40.6649014750       33.2082245342       10.8527151981
  H        23.1501617848        1.9576885977        8.0030524761
  H        25.7640873589       19.6683666762        3.9606794886
  H        23.6033749575       19.7316895284        2.7152817930
  H        22.3076843616       16.1970237611        4.7949429869
  H        24.4763529419       16.1456720549        6.0393473687
  H        23.7056283987       17.7312932642        1.2377476936
  H        35.1084542060       15.4661848889        3.9854779393
  H        37.2324790157       15.3914616677        2.6779048816
  H        38.7037847958       18.7693177947        4.8995841584
  H        36.5811590510       18.8161657925        6.2188460814
  H        37.2109594978       17.3240132964        1.2401740764
  H        20.3239060881       17.9694970329        4.6497162480
  H        35.2272355879       15.3486139545       12.0177057650
  H        37.3523051160       15.3148154090       13.3186238458
  H        38.6819426614       18.8288009199       11.2249143300
  H        36.5426530361       18.8553518307        9.9281782721
  H        37.2285057311       17.3173551951       14.7912071650
  H        35.1047323054       26.6903836198       11.3906309322
  H        28.5073837621       21.0940959586        7.8900576068
  H        25.7116946692       19.6939962857       12.0812429014
  H        23.5295250551       19.7553625281       13.2968588419
  H        22.3197722267       16.1466126608       11.2950647545
  H        24.5066237323       16.0999075402       10.0781977159
  H        23.6936222179       17.7250679909       14.7887046867
  H        28.9652745723       21.7306757984        9.7089125421
  H        29.1738089460       21.7163209985        6.5217385633
  H        32.1464926736       18.6067311444       10.8757284747
  H        27.3495248856       19.0711148248        8.0776567800
  H        14.8512889220       19.6737220166       12.1044328382
  H        17.0190247580       19.7313922091       13.3427740023
  H        18.2979310230       16.1951695008       11.2553890616
  H        16.1269127295       16.1540490002       10.0156106866
  H        16.9089334565       17.7319754287       14.8168106507
  H        46.0904458254       15.4384944774       12.0655263886
  H        43.9661887095       15.3752966173       13.3717701994
  H        42.5490437961       18.8147707532       11.2113008638
  H        44.6730354136       18.8515414100        9.8933018749
  H        44.0152946756       17.3082699704       14.8392215362
  H        20.2894120478       17.9332519295       11.4041832311
  H        46.0378570539       15.3769254503        4.0423728969
  H        43.9060155392       15.3030982156        2.7509405347
  H        42.5102789751       18.7757197349        4.8706260403
  H        44.6486953666       18.8355127578        6.1635163527
  H        43.9978852277       17.2832813359        1.2880747657
  H        46.1988227965       26.6825991187        4.6233177911
  H        52.7411470166       21.0626696374        8.1946084808
  H        14.8627522607       19.6844463376        3.9115458469
  H        17.0574094603       19.7650449998        2.7166301690
  H        18.3135273757       16.2162567860        4.7959623438
  H        16.1215335232       16.1603481695        6.0018651243
  H        16.9205353167       17.7423269345        1.2653999039
  H        52.3223335374       21.6736602409        6.2947632719
  H        52.0135345342       21.7026156396        9.4954735983
  H        49.0669603686       18.6076560545        5.2042530601
  H        13.2471272259       19.0165667222        7.9760918665
  H        29.9658382938       12.4766623609       12.2149110882
  H        28.9181287940       10.5371125165       13.3974169676
  H        25.2840240508       11.1560814887       11.1820645109
  H        26.3513000079       13.0789669733        9.9914764030
  H        27.2013563488       11.6540559552       14.7821369902
  H        30.9812131229       22.7325312868       12.0065062011
  H        31.9645378175       24.6166672317       13.3132408793
  H        35.6533118204       24.1799616904       11.1435753462
  H        34.6488172140       22.3060917193        9.8288605953
  H        33.6242339019       23.5929093176       14.7565799192
  H        25.7579889498        8.5787523106       11.3835018540
  H        30.9010265154       22.6849530400        3.9074026014
  H        31.9069016869       24.5692544471        2.6210137461
  H        35.5421783554       24.1602833334        4.8848572824
  H        34.5138311872       22.2895628699        6.1817472899
  H        33.5965135997       23.5806312767        1.2038869493
  H        40.5830834122       17.0573356018        4.6599521212
  H        32.5175585669       14.1369136833        8.1824136618
  H        29.8536902602       12.4886138270        3.9700430494
  H        28.8366871999       10.5947548803        2.7029438306
  H        25.1262439410       11.1994368771        4.7916613340
  H        26.1609093801       13.0888936922        6.0635394365
  H        27.1636668827       11.6733625292        1.2300834293
  H        33.2904834123       14.2307917454        6.3507107066
  H        33.4088549964       14.3857211163        9.5319160586
  H        32.1554760269       18.5646294497        5.1789158522
  H        30.1902931797       14.1373444638        8.0756466398
  H        16.1179413921        2.9628245267       12.1292297134
  H        14.9522975757        4.8196292138       13.3219790192
  H        17.3655115526        7.6856956647       11.2105263091
  H        18.5146508899        5.8184018312       10.0107115603
  H        16.7526080195        5.7390471551       14.7713840970
  H        44.8279121120       32.1400674076       11.9768810789
  H        45.9371578293       30.3411729584       13.3063574247
  H        43.6819780934       27.3780039210       11.1524877165
  H        42.5992975181       29.1899186419        9.8098583370
  H        44.2300400427       29.4365883969       14.7688349558
  H        14.8499609331        8.5454256203       11.3632388665
  H        44.8998483001       32.2339455329        3.9319876886
  H        46.0246276543       30.4128841929        2.6523632028
  H        43.7629478445       27.4840084772        4.8451295458
  H        42.6452890396       29.3177496323        6.1242958684
  H        44.2681750095       29.4703851318        1.2181457073
  H        35.0241198337       26.6362845346        4.6328591802
  H        36.6051814887       35.1339567291        8.1806629821
  H        16.1434367942        3.0126932544        3.9041736259
  H        14.9736329135        4.8559569715        2.6884854175
  H        17.3958395039        7.7470627473        4.7548523513
  H        18.5429755345        5.8932092542        5.9825312896
  H        16.7640192807        5.7551423584        1.2191514855
  H        36.2787846896       34.4820810216        6.2734122654
  H        36.3809716223       34.2091012802        9.4997229622
  H        40.5796210491       33.2022183537        5.1540346139
  H        17.4708140008        1.9470482219        7.9740314253
  H        28.6865530683       18.9482878965       12.2593474129
  H        28.7190697355       18.8156891999        3.7856427957
  H        30.7928496704       15.3048873276        3.8429715935
  H        32.3622338994       16.2265085666       12.2736996729
  H        18.8538009691        0.8690108315       12.3352693398
  H        40.5282895583       35.2289402477        3.9521408578
  H        42.3236903812       34.4188288572        3.5903396472
  H        22.0874238806        0.6922773593       12.3515445596
  H        11.5966557847       18.7128394540       12.3825137634
  H        52.2647445973       18.4312748014        3.6775124043
  H        49.2551799605       16.4764498531        3.5841235718
  H        10.1503605608       15.7982410042       12.2925609207
  H        50.8498980532       17.6926689841        3.9540212864
  H        10.0460016743       17.3947067142       12.0519269921
  H        20.2150934720        0.0020643625       12.0419385151
  H        39.1837246566       36.1243108918        3.6863637115
 Ni        30.5630871259       17.5027877592        2.9974681870
 Ni        31.5390880325       18.1113210934       15.0785885826
 Ni        30.1016063750       17.2802167326        0.6673049546
 Ni        30.7291306163       17.8421697615       12.9905989207
  O        10.6497774115       14.3651788140        5.4857968216
  O        12.6130665954       14.6574327870        6.5838181430
  O        49.1476171683       16.8459534174        7.9896870381
  O        50.3500723114       20.9363123254        5.6482548327
  O        48.3484399256       20.5932486951        6.6659599533
  O        11.0508593534       17.0541012178        6.5006284155
  O        50.3206531253       20.8816904436       10.4068677630
  O        48.3465989448       20.5866378958        9.3270096744
  O        49.5432816950       18.2484086826       10.0683197568
  O        12.3587860044       18.6246591908        7.9996407883
  O        48.6931702864       14.1486480523        6.7512844321
  O         8.2098396451       14.2104260890        9.3225272546
  O        10.7352616302       14.5067607208       10.6643617694
  O        12.5717162073       14.5827299741        9.3285458709
  O        22.8441509679        2.0420273957        5.4874462010
  O        21.6047014933        3.5917910007        6.5896629634
  O        42.0578862487       34.1370266877        7.9790694163
  O        37.9813958206       33.1366264076        5.5723254804
  O        39.2170690066       31.5748988943        6.6652253565
  O        20.3083242239        1.0395335980        6.5018956533
  O        38.0242517058       33.1852842667       10.4154048399
  O        39.2175633634       31.5824188230        9.3279923735
  O        40.6521462826       33.7690309108       10.0601676696
  O        18.2556863095        1.3761388251        7.9967656943
  O        44.6222312975       35.1005390791        6.7588504259
  O        24.2054832352       -0.0001196607        9.3207717478
  O        22.7530326564        2.0562266208       10.5827636527
  O        21.6242736387        3.5954596448        9.3419527376
  O        27.4575516385       18.6936098782        5.4871403433
  O        26.6896804162       16.9192791761        6.6703075641
  O        30.6319743157       19.3503743193        8.0000003485
  O        33.5452476549       16.3307998162        5.6603311327
  O        34.2678473483       18.1839109766        6.7434750225
  O        29.5331597916       17.0182034195        6.5766974427
  O        33.5837916029       16.2656160347       10.4145658504
  O        34.2665011357       18.1782845908        9.4036854912
  O        31.6485666727       18.3213158919       10.0902496049
  O        30.2888623492       15.1030274452        8.0724089728
  O        28.5509445990       21.0292462650        6.8216257423
  O        28.5095392074       20.9607090838        9.3282244906
  O        27.4521595767       18.6785266177       10.6569782871
  O        26.6885403733       16.9294145122        9.4169311495
  O        13.1461964903       18.6938649443       10.5861334649
  O        13.9177472446       16.9159664550        9.4039495226
  O        50.5956217833       19.3503086850        8.0205512686
  O        47.6825745018       16.3272298078       10.4174860367
  O        46.9504673763       18.1756584206        9.3254122079
  O        11.0688771031       17.0159433856        9.4895405302
  O        47.6745869673       16.3359221810        5.6527713838
  O        46.9246045665       18.2358350271        6.6629977880
  O        49.5686017966       18.3177611353        5.9822133820
  O        10.3186639770       15.1001765709        7.9971246434
  O        52.6706731126       21.0279968050        9.2418095263
  O        12.1467986103       20.8914206298        6.6733263358
  O        13.1045926831       18.6143858840        5.3263083831
  O        13.9555403393       16.9866374725        6.6651867335
  O        29.9975459593       14.4359477009       10.6628671071
  O        28.0717530663       14.6572862726        9.4873005619
  O        32.0746049140       16.8525543104        8.0597543957
  O        30.9549192688       20.9512942175       10.3335796909
  O        32.9559049339       20.5899396640        9.3255131146
  O        29.5612810248       17.0714439488        9.5725619381
  O        30.8564046212       20.8773714823        5.5894283413
  O        32.8568935915       20.5837322799        6.6544812810
  O        31.6110901968       18.2387941199        5.9130098061
  O        28.2333123387       18.6696269996        8.0655423217
  O        32.4931169916       14.2089642145        9.2494683728
  O        32.4019413830       14.2102395720        6.7442348001
  O        29.8386905347       14.4360120282        5.4862379589
  O        27.9602132058       14.5846467397        6.7508438846
  O        17.8892055654        1.9665362890       10.6628288050
  O        18.9561342719        3.5271523773        9.4080418249
  O        39.1684761744       34.1385179166        7.9972269356
  O        43.2801525263       33.0587561681       10.3316940225
  O        42.0342549779       31.5064296165        9.2415838318
  O        20.3173869384        1.0363234280        9.4802213916
  O        43.2760900193       33.1824646763        5.5748875321
  O        42.0051925610       31.5840916761        6.5830563283
  O        40.5790463280       33.7750169218        5.9360845607
  O        22.3671283428        1.3843386041        7.9979645071
  O        36.6727571453       35.0997558314        9.2332995060
  O        16.4455851846        0.0641680945        6.6682485615
  O        17.9363856638        2.0432011980        5.3264073699
  O        18.9188578349        3.5931445325        6.6658822730
  O        29.6520110314       18.8338133439        4.0696659084
  O        29.6191167227       19.0481863654       11.9867549017
  O        31.3028362144       16.1033846902        4.0818748083
  O        31.4347816739       16.3339095992       11.9991933405
  O        39.4568776417       35.2437269025        4.0020007639
  O        19.1415884756        0.0045196254       11.9905181023
  O        41.9694633863       35.1726435189        4.0871634648
  O        21.6913004906       -0.0693695328       11.8960311176
  O        51.3648090782       18.6143880698        4.0052658957
  O        10.7508461922       18.7472186991       11.9050294542
  O        50.0794484414       16.4127698229        4.0917213346
  O         9.5244069214       16.4830847339       11.9911873209
 Zr         9.2966490323       16.0528825518        6.1821930447
 Zr        49.8362206752       16.0068672203        9.7466060794
 Zr        22.0732557794        0.0295859484        6.1892535518
 Zr        42.4608324672       35.1532849925        9.8010281365
 Zr        29.5531917249       19.0651031693        6.2502313787
 Zr        29.5593808677       19.1901509463        9.8086330562
 Zr        11.0372451152       19.0524347912        9.8277268312
 Zr        11.0433129209       19.1552230622        6.2511382412
 Zr        31.3303881804       16.0734777338        9.8386186669
 Zr        31.3584987273       15.9884471861        6.2760141289
 Zr        18.6011241142       -0.0016827985        9.7636395958
 Zr        18.5065522061       -0.0080012415        6.2135663486
 Zr        12.3009975519       16.3232476044        7.9904268767
 Zr        48.6158985433       18.8329605240        8.0100235776
 Zr        20.3149416439        2.4732091847        7.9907062186
 Zr        40.6427539382       32.6867172904        7.9782979994
 Zr        28.3154032499       16.3232462319        8.0819949424
 Zr        32.6064941193       18.8306312742        8.0324446749
  H        29.4784272663       16.7048977435        2.0508819817
  H        32.0502855279       18.6100639113       13.6049121624
  H        30.0050142936       17.4569289816       14.9517474679
  H        31.6230983343       17.9394244080        0.7699877791
