     558
 i =       98, E =     -4339.2060860299
  C        11.8578490539       14.0533878031        5.7420729912
  C        12.4554497927       12.8903942288        5.0234807741
  C        11.7041651437       12.1722726151        4.0809809388
  C        12.2803857939       11.1099050633        3.3886981324
  C        13.6205664712       10.7391138573        3.6169786286
  C        14.3532029909       11.4418787440        4.5914111606
  C        13.7805159685       12.5070035938        5.2828966620
  C        14.2600760124        9.6484532373        2.8435527063
  C        14.2555623294        9.6564214742        1.4218199409
  C        13.7426243438       10.7586337905        0.6678635868
  C        49.1262831833       21.2334741837        5.8797315153
  C        48.5493290135       22.4010869992        5.1524206982
  C        49.2996270796       23.0691606695        4.1721027648
  C        48.7323879051       24.1076716777        3.4383188010
  C        47.4020174684       24.5095907319        3.6674593100
  C        46.6704376218       23.8594691906        4.6797194437
  C        47.2331758810       22.8149907004        5.4094401023
  C        46.7717350601       25.5868148271        2.8697612266
  C        46.7609083484       25.5573088181        1.4479104792
  C        47.2606779083       24.4421575459        0.7045450520
  C        14.8596728795        8.5701496010        0.7085560845
  C        14.8906787108        8.5963934801        3.5202308532
  C        49.1126654484       21.2033386437       10.1446305359
  C        48.5271298082       22.3639060363       10.8727867094
  C        49.2665887475       23.0257706549       11.8647810137
  C        48.6897116820       24.0592424236       12.5972848438
  C        47.3599604735       24.4574431492       12.3578038597
  C        46.6389275580       23.8106491359       11.3359146270
  C        47.2130139138       22.7756907421       10.6032414518
  C        46.7211056500       25.5313894207       13.1497013715
  C        46.7332535753       25.5280673309       14.5714764892
  C        47.2483593600       24.4286983111       15.3277099626
  C        40.6118153812       17.1068430993       15.3011706473
  C        40.6283397707       17.1948610919       12.4893591120
  C        11.8823925322       14.0865988620       10.2856209027
  C        12.4716403968       12.9100978018       10.9893643224
  C        11.7140776438       12.1778567186       11.9161461457
  C        12.2801440710       11.0951315450       12.5846316112
  C        13.6185271468       10.7203382424       12.3521449698
  C        14.3564304410       11.4346711627       11.3903488726
  C        13.7914570102       12.5160871672       10.7176163951
  C        14.2523156321        9.6238164419       13.1227419005
  C        14.2514287909        9.6437978627       14.5446190123
  C        13.7418924998       10.7529721191       15.2915978662
  C        22.5055623919        3.2427167620        5.7484204149
  C        23.2066866516        4.3471216861        5.0348789473
  C        24.2068003476        4.0661081331        4.0926321915
  C        24.8263827282        5.1045835590        3.4026849818
  C        24.4596257674        6.4449109011        3.6348079412
  C        23.4836866472        6.7177130620        4.6103856181
  C        22.8605689256        5.6810987974        5.2996454869
  C        25.0680070094        7.5501178020        2.8611838320
  C        25.0645113045        7.5375372570        1.4398515695
  C        24.3732411199        6.5355781650        0.6883958830
  C        38.3017934402       31.9238839511        5.8444602451
  C        37.5723442357       30.8349687348        5.1285126865
  C        36.6180124040       31.1405114201        4.1447312113
  C        35.9983251111       30.1240445821        3.4216359856
  C        36.3124016281       28.7704958316        3.6592118757
  C        37.2368472618       28.4721440829        4.6797815323
  C        37.8618944317       29.4880636462        5.4003578360
  C        35.7000286307       27.6811096364        2.8612767081
  C        35.7185575585       27.6946421350        1.4364857048
  C        36.4256751936       28.6905284279        0.6949262146
  C        25.6998616427        8.6045059240        0.7263857667
  C        25.6481887868        8.6299972210        3.5372413600
  C        38.3239980993       31.9590022681       10.1537485792
  C        37.5936782382       30.8833731939       10.8848042069
  C        36.6640114573       31.1864786015       11.8922971113
  C        36.0456732927       30.1649797073       12.6109529486
  C        36.3413626054       28.8109147032       12.3495145415
  C        37.2478227496       28.5184283634       11.3112373073
  C        37.8684935335       29.5365971240       10.5936742176
  C        35.7313280423       27.7100090660       13.1312862912
  C        35.7364026541       27.7083671607       14.5561566150
  C        36.4320571570       28.6982546641       15.3169074545
  C        46.1354538771       26.6210183681       15.2813295060
  C        46.0870851362       26.5795507672       12.4734513226
  C        22.4653966425        3.2534152931       10.2515915947
  C        23.1718202366        4.3596001286       10.9647309445
  C        24.1841739587        4.0679433605       11.8925093157
  C        24.8236175996        5.0948947080       12.5819118259
  C        24.4689079594        6.4411515498       12.3660140821
  C        23.4811962649        6.7264273865       11.4049266982
  C        22.8375174652        5.6996345416       10.7154095940
  C        25.1037447559        7.5344166655       13.1420456535
  C        25.0831040853        7.5288851515       14.5640661765
  C        24.3795899533        6.5329534574       15.3118863478
  C        26.5594669910       17.8289198726        5.7882050543
  C        25.2613432075       17.8948236105        5.0658852915
  C        25.0116002084       18.9047301904        4.1221574400
  C        23.8053816560       18.9351206039        3.4277461741
  C        22.8137325245       17.9592227717        3.6548483772
  C        23.0571542288       16.9744876446        4.6316792397
  C        24.2653856613       16.9376481465        5.3228865460
  C        21.5492715415       17.9533241835        2.8831163061
  C        21.5576185894       17.9549556271        1.4602798711
  C        22.7669146141       17.8511678792        0.7037129599
  C        34.4270320535       17.2073390403        5.9033775422
  C        35.7192166569       17.1339077302        5.1744051239
  C        35.9040514421       16.1800228054        4.1593067832
  C        37.0846087555       16.1564122060        3.4229974466
  C        38.1155774761       17.0847572305        3.6764439967
  C        37.9336844553       18.0134094803        4.7214211643
  C        36.7508506527       18.0446975243        5.4546811715
  C        39.3649232871       17.0965641732        2.8840012035
  C        39.3572247886       17.1035837654        1.4584216212
  C        38.1514492407       17.2237707015        0.7019970028
  C        20.3134276627       17.9708507578        0.7483975223
  C        20.3228210124       17.9370157356        3.5610330468
  C        34.4416930802       17.2173109502       10.1625535001
  C        35.7477634866       17.1541499628       10.8671031112
  C        35.9863612761       16.1578929954       11.8303724220
  C        37.1663011139       16.1574402567       12.5661703731
  C        38.1523585996       17.1426183709       12.3541276737
  C        37.9263791247       18.1066135842       11.3507008092
  C        36.7377827602       18.1213670811       10.6253893034
  C        39.3965724424       17.1643260675       13.1533370599
  C        39.3733441724       17.1370473688       14.5779414352
  C        38.1590394301       17.2370718576       15.3228787745
  C        35.1002723297       26.6340354657       15.2632197657
  C        35.1461600530       26.6332964360       12.4509284670
  C        26.5580721431       17.8294542516       10.3242914679
  C        25.2441185497       17.8924050717       11.0184555311
  C        24.9667810271       18.9288040635       11.9235929926
  C        23.7501410683       18.9605154017       12.5978969962
  C        22.7827001149       17.9578609837       12.3888160963
  C        23.0520655070       16.9485757534       11.4464721182
  C        24.2701004949       16.9118446315       10.7721980588
  C        21.5201136733       17.9481312513       13.1613575097
  C        21.5424054496       17.9513854834       14.5827139691
  C        22.7600453625       17.8517480802       15.3267859838
  C        14.0447068160       17.8323363127       10.2834037210
  C        15.3506014335       17.8976195098       11.0015303918
  C        15.6073426701       18.9125885893       11.9359687244
  C        16.8176945489       18.9413989986       12.6245189355
  C        17.8010373392       17.9570694013       12.4011113845
  C        17.5493746211       16.9671158232       11.4330353238
  C        16.3384873253       16.9334301800       10.7456602315
  C        19.0673718157       17.9474393251       13.1702855985
  C        19.0610657527       17.9499557104       14.5923593575
  C        17.8512608757       17.8460794914       15.3474969868
  C        46.8014288513       17.2173882254       10.1561972778
  C        45.5087221514       17.1588656119       10.8953885074
  C        45.2922485733       16.1822020910       11.8803171026
  C        44.1076882807       16.1718150497       12.6115551562
  C        43.1055295077       17.1353048104       12.3787958234
  C        43.3178651717       18.0880667268       11.3632215572
  C        44.5032026046       18.1027936945       10.6331557040
  C        41.8527470388       17.1547941390       13.1659637538
  C        41.8583269386       17.1297669196       14.5907691731
  C        43.0656627381       17.2179344863       15.3484319958
  C        20.3053535929       17.9685406855       15.3040053597
  C        20.2916746115       17.9233989829       12.4906201326
  C        46.7813748788       17.2311032232        5.8851081885
  C        45.4803997703       17.1246942840        5.1650812566
  C        45.2686824493       16.1338541906        4.1928388568
  C        44.0819067546       16.1043153307        3.4643437105
  C        43.0705661821       17.0598328442        3.6903141886
  C        43.2729844522       18.0189929993        4.7018467031
  C        44.4617648669       18.0563866522        5.4243174975
  C        41.8228201450       17.0787787083        2.8946389290
  C        41.8433856616       17.0890476122        1.4701370658
  C        43.0582284310       17.1981650743        0.7272461253
  C        46.1532945452       26.6373839432        0.7260848083
  C        46.1613897848       26.6556871267        3.5358413612
  C        14.0400384278       17.8286574519        5.7064480477
  C        15.3545916331       17.8988161876        5.0062542251
  C        15.6247206209       18.9231880087        4.0869524038
  C        16.8492010328       18.9626211909        3.4251192776
  C        17.8280690988       17.9760955362        3.6570887772
  C        17.5631423053       16.9771703975        4.6111019772
  C        16.3408202385       16.9374473630        5.2770460846
  C        19.0945369787       17.9617833054        2.8898763881
  C        19.0753909704       17.9566134368        1.4681653909
  C        17.8584831187       17.8492998488        0.7241813819
  C        28.8028783831       14.0779590809       10.3564377365
  C        28.2128435532       12.8970982546       11.0405901099
  C        28.9456391292       12.1742935766       11.9942401903
  C        28.3579721910       11.0979295317       12.6540370114
  C        27.0255617037       10.7237001258       12.3852425638
  C        26.3169792427       11.4260361281       11.3932336190
  C        26.9005582964       12.5025984521       10.7324126714
  C        26.3616880665        9.6428113988       13.1481071067
  C        26.3380273786        9.6704834862       14.5689895287
  C        26.8388172350       10.7816973165       15.3183340330
  C        32.1243481709       21.2195788396       10.1064305482
  C        32.7220423320       22.3836947851       10.8195927538
  C        31.9851747406       23.0491546540       11.8141954742
  C        32.5623478716       24.0831712415       12.5460152824
  C        33.8917315385       24.4895253422       12.3088903711
  C        34.6074535470       23.8423729939       11.2809185139
  C        34.0365850043       22.7996738998       10.5522303078
  C        34.5239025359       25.5658896064       13.1107094770
  C        34.5084068516       25.5469162334       14.5364592223
  C        33.9991601633       24.4382976227       15.2806290207
  C        25.7167308544        8.5952833762       15.2823895573
  C        25.7260090998        8.5941849670       12.4705165465
  C        32.0749814031       21.2061173076        5.8427764916
  C        32.6540603653       22.3686346705        5.1130493318
  C        31.9280838702       23.0096550389        4.0960060037
  C        32.5051814544       24.0474390128        3.3677919681
  C        33.8224592436       24.4763100650        3.6318785429
  C        34.5246263125       23.8521786774        4.6822400895
  C        33.9530310293       22.8122983972        5.4103145984
  C        34.4674918892       25.5528335102        2.8439863572
  C        34.4787021059       25.5401390642        1.4190262363
  C        33.9830811620       24.4358386616        0.6592729420
  C        40.6038444769       17.0874593461        0.7475681830
  C        40.5917537782       17.1015730190        3.5593559026
  C        28.6599752049       14.0588906789        5.8214508948
  C        28.0577481822       12.9159744887        5.0830141146
  C        28.8127390381       12.2054132970        4.1360817177
  C        28.2410508200       11.1514009763        3.4298926902
  C        26.8988941813       10.7800710954        3.6453428365
  C        26.1610268702       11.4748582958        4.6224762194
  C        26.7297807439       12.5318971387        5.3292209973
  C        26.2724821419        9.6880936574        2.8654556979
  C        26.2937734141        9.6937629857        1.4439379504
  C        26.8142715053       10.7946264479        0.6941980226
  C        18.1343977251        3.1803619784       10.3163860621
  C        17.4057167763        4.2776212706       11.0157916078
  C        16.3902427869        3.9989616841       11.9434621170
  C        15.7420571194        5.0386261121       12.6070226731
  C        16.0931886859        6.3825230753       12.3671971120
  C        17.0813647763        6.6524211724       11.4022744133
  C        17.7308372969        5.6153310076       10.7371747336
  C        15.4686123269        7.4902940321       13.1299393045
  C        15.4844082574        7.4897190409       14.5516622594
  C        16.1861070817        6.4963287769       15.3050008215
  C        42.9456636005       31.8591964950       10.0726789750
  C        43.6460049792       30.7717312230       10.8165998588
  C        44.5917691002       31.0929605321       11.8025501048
  C        45.1973710603       30.0874334598       12.5502708345
  C        44.8707841778       28.7343293734       12.3355854220
  C        43.9447921359       28.4200707627       11.3224424372
  C        43.3360072954       29.4252161341       10.5744311027
  C        45.4884863146       27.6550697559       13.1385784476
  C        45.4926391217       27.6810466743       14.5603424188
  C        44.8057116462       28.6890729540       15.3069881614
  C        14.8555935457        8.5622791127       15.2640883715
  C        14.8728350570        8.5618652911       12.4514736729
  C        42.9456549131       31.9613142968        5.8083711210
  C        43.6915100286       30.8855109443        5.0956360261
  C        44.6563726967       31.1912846141        4.1234917966
  C        45.2770595660       30.1716053161        3.4052680517
  C        44.9541230716       28.8211149723        3.6433539450
  C        44.0196423963       28.5239126405        4.6534039805
  C        43.3919194896       29.5405992793        5.3660891203
  C        45.5626585014       27.7239101241        2.8576616188
  C        45.5332407048       27.7175564539        1.4362816682
  C        44.8269211937       28.7077706037        0.6834667510
  C        35.0897134447       26.6282543402        0.7105907717
  C        35.0909810379       26.6079178561        3.5230132617
  C        18.1477201009        3.2464320698        5.7071326915
  C        17.4294168108        4.3433808447        4.9974160017
  C        16.4147876829        4.0519701173        4.0732684035
  C        15.7661803311        5.0824967625        3.3979661220
  C        16.1202935728        6.4278354521        3.6210454827
  C        17.1108210825        6.7114092072        4.5791717392
  C        17.7587026895        5.6825585013        5.2588658588
  C        15.4897518646        7.5235651008        2.8486602545
  C        15.4956190786        7.5068970258        1.4275046106
  C        16.1925752767        6.5052983314        0.6808265888
  H        10.6723362491       12.4670427772        3.9033441544
  H        11.6942053188       10.5519446843        2.6616781184
  H        15.3898352044       11.1663123240        4.7739223629
  H        14.3496655147       13.0694141347        6.0191946029
  H        13.3756044041       11.6307617466        1.2011825777
  H        50.3223867594       22.7491533519        3.9876157258
  H        49.3191433841       24.6235547446        2.6813658695
  H        45.6408462968       24.1600813567        4.8626263056
  H        46.6617876380       22.2889412323        6.1707034781
  H        47.6287937540       23.5756000915        1.2462400207
  H        14.8707076734        8.5874672838        4.6085400369
  H        50.2864601381       22.7025998623       12.0599829510
  H        49.2683707487       24.5754209239       13.3600861805
  H        45.6096839302       24.1082904653       11.1466474603
  H        46.6516923399       22.2528724220        9.8324874475
  H        47.6067485257       23.5514161909       14.7967991411
  H        40.6348971392       17.1865799125       11.4009441425
  H        48.6864335903       14.0952314214        7.7997232584
  H        10.6809352134       12.4677589569       12.0941421461
  H        11.6884535606       10.5254896252       13.2980322863
  H        15.3915212616       11.1559731207       11.2036580119
  H        14.3633563195       13.0847871455        9.9881994423
  H        13.3749649619       11.6215535618       14.7529642500
  H        47.9295112243       14.2197997115        9.7103498296
  H        47.7799957446       14.3752762757        6.4947380361
  H        49.0813930874       18.5517400462       10.8662549724
  H        10.4148066292       14.1345598625        7.9982104766
  H        24.4772862947        3.0278936843        3.9134403385
  H        25.6045517038        4.8877152588        2.6740967198
  H        23.1926002036        7.7499789209        4.7933782648
  H        22.0864775745        5.8804895883        6.0366226055
  H        23.8054605793        5.7802050767        1.2238426487
  H        36.3853330357       32.1844861679        3.9480712643
  H        35.2580950057       30.3706783781        2.6636113835
  H        37.4914437274       27.4322291084        4.8742323037
  H        38.5999565841       29.2597390795        6.1658583337
  H        36.9954717636       29.4397734798        1.2369648851
  H        25.6634153219        8.6182581721        4.6255329868
  H        36.4461325412       32.2297696947       12.1097305106
  H        35.3212435987       30.4095873217       13.3847036169
  H        37.4921609378       27.4791253840       11.1016713625
  H        38.5910796446       29.3117726954        9.8129491253
  H        37.0091244295       29.4527370100       14.7902238354
  H        46.1083285135       26.5869008980       11.3854016216
  H        44.6678953986       35.1160463980        7.8142541912
  H        24.4590147012        3.0282291228       12.0548926068
  H        25.6107031949        4.8635930462       13.2964762669
  H        23.1971624790        7.7622837885       11.2308667821
  H        22.0579211703        5.9149094627        9.9883112220
  H        23.8158509894        5.7765595504       14.7737169348
  H        44.9525569702       34.3888056263        9.6940592761
  H        44.9007544560       34.2063590304        6.4906238054
  H        40.6639918402       33.2070234946       10.8519537225
  H        23.1501528070        1.9568120170        8.0028967859
  H        25.7714508328       19.6635281464        3.9506534152
  H        23.6139479213       19.7234677507        2.7029926500
  H        22.3012923943       16.2133362619        4.8139733422
  H        24.4673344783       16.1627028240        6.0585363475
  H        23.7076020260       17.7383075830        1.2347015961
  H        35.1042519460       15.4720052900        3.9541690779
  H        37.2240109076       15.4101340315        2.6439918472
  H        38.7189214635       18.7384227533        4.9250949733
  H        36.5977342657       18.7817594779        6.2394727996
  H        37.2104327914       17.3406167175        1.2314874552
  H        20.3254031541       17.9608877448        4.6493266086
  H        35.2325388192       15.3923576684       11.9979241402
  H        37.3423350988       15.3853084159       13.3119173288
  H        38.6795392175       18.8723762331       11.1767874498
  H        36.5450589900       18.8898997989        9.8803671726
  H        37.2239270524       17.3620295961       14.7845533104
  H        35.1263015357       26.6559997474       11.3628163185
  H        28.5005911495       21.0991441953        7.8819048552
  H        25.7140635635       19.7035225909       12.0789272608
  H        23.5340243765       19.7653241304       13.2972504944
  H        22.3106744120       16.1697760455       11.2801278791
  H        24.4960240029       16.1192572093       10.0627912146
  H        23.6952604869       17.7395916389       14.7862166175
  H        28.9514422395       21.7334101349        9.7137271264
  H        29.1700040931       21.7199347153        6.5165316111
  H        32.3998005439       18.7127081220       10.7168650087
  H        27.3415737378       19.0653223894        8.0661739632
  H        14.8484468482       19.6730992668       12.1055207569
  H        17.0159796422       19.7325681248       13.3444189814
  H        18.3000790733       16.2001040207       11.2540359555
  H        16.1288276101       16.1566140937       10.0141952707
  H        16.9111888287       17.7303559817       14.8160840210
  H        46.0712368196       15.4471602839       12.0689378888
  H        43.9423118479       15.4076926354       13.3678790720
  H        42.5544378785       18.8408345605       11.1778190348
  H        44.6829866457       18.8546923050        9.8683580618
  H        44.0070663679       17.3382942836       14.8201960902
  H        20.2879874205       17.9430193947       11.4022643277
  H        46.0508796816       15.4008062842        4.0089221798
  H        43.9244126582       15.3346848917        2.7118008234
  H        42.5009701328       18.7635968964        4.8846470745
  H        44.6357646400       18.8184316915        6.1801577797
  H        43.9941741136       17.3021602142        1.2683667723
  H        46.1980798809       26.6821476309        4.6233089263
  H        52.7408910971       21.0623866421        8.1943338580
  H        14.8660337315       19.6824284155        3.9105920706
  H        17.0609165030       19.7601340646        2.7161536403
  H        18.3112578902       16.2085690137        4.7939659488
  H        16.1189724917       16.1556547090        5.9994235916
  H        16.9237977290       17.7356786776        1.2651634653
  H        52.3206481685       21.6730947696        6.2952154008
  H        52.0118402259       21.7014133606        9.4952291625
  H        49.0652108626       18.6069491128        5.2044622605
  H        13.2465816487       19.0168155202        7.9758346866
  H        29.9688257523       12.4765012416       12.2072172849
  H        28.9252957323       10.5363633395       13.3930971118
  H        25.2881133638       11.1447699024       11.1784626443
  H        26.3497526415       13.0677346613        9.9846230497
  H        27.2141290264       11.6478170213       14.7816210694
  H        30.9649612854       22.7289478159       12.0128290721
  H        31.9831653318       24.5921120862       13.3133081429
  H        35.6351577644       24.1409104140       11.0843738355
  H        34.6036420527       22.2780347345        9.7843801356
  H        33.6461702836       23.5638614481       14.7417220541
  H        25.7618417084        8.5752132205       11.3827088688
  H        30.9181280964       22.6697233162        3.8776141028
  H        31.9351831330       24.5408442481        2.5836906341
  H        35.5419591420       24.1709419763        4.8991823133
  H        34.5084028641       22.3094212819        6.1983447169
  H        33.6190071800       23.5592718462        1.1871208977
  H        40.5883749299       17.0694924856        4.6473184385
  H        32.5245404894       14.1340020352        8.1550333784
  H        29.8512151882       12.4852947121        3.9758276020
  H        28.8327573645       10.5963865043        2.7052194227
  H        25.1228859267       11.1985939919        4.7950916806
  H        26.1565191836       13.0856017374        6.0690458144
  H        27.1701242685       11.6704418621        1.2288376625
  H        33.2888028153       14.2291695120        6.3478772880
  H        33.4156779349       14.3431707271        9.5349089900
  H        32.0715611591       18.5256383945        5.1134957661
  H        30.1851455119       14.1353403639        8.0576062226
  H        16.1190354897        2.9623545839       12.1305706287
  H        14.9532306904        4.8190247852       13.3232926489
  H        17.3629190457        7.6854223368       11.2085827419
  H        18.5123186506        5.8181723030       10.0087719206
  H        16.7525678977        5.7389521878       14.7714390582
  H        44.8281459011       32.1400338889       11.9767172148
  H        45.9373202480       30.3410550616       13.3061926075
  H        43.6818661338       27.3780244452       11.1525027247
  H        42.5990514089       29.1899581405        9.8100608275
  H        44.2302361503       29.4367477551       14.7686892464
  H        14.8487290671        8.5447520724       11.3632665653
  H        44.8998098668       32.2339652488        3.9319549357
  H        46.0243441084       30.4127562573        2.6523772699
  H        43.7629051843       27.4841119240        4.8449019939
  H        42.6449980586       29.3176019024        6.1240556695
  H        44.2682672547       29.4705947138        1.2180086280
  H        35.0563427480       26.6203969023        4.6109237833
  H        36.6050926658       35.1333179066        8.1811021433
  H        16.1442759004        3.0122838626        3.9031863997
  H        14.9742788747        4.8554792681        2.6874508398
  H        17.3935808885        7.7469893954        4.7566816782
  H        18.5408875275        5.8930562886        5.9843839075
  H        16.7640356482        5.7550157822        1.2191812123
  H        36.2790595765       34.4809700370        6.2735243814
  H        36.3816635095       34.2087045280        9.5003999327
  H        40.5791425401       33.2011773682        5.1541464653
  H        17.4710225156        1.9462393576        7.9739713524
  H        28.7352768394       19.0229160262       12.4230552696
  H        28.7591552827       18.9153352994        3.7782859445
  H        30.6954135242       15.3288099169        3.8574572203
  H        32.5851873336       16.1190713971       12.2104112750
  H        18.8534673770        0.8689877229       12.3349555700
  H        40.5280152046       35.2292490475        3.9523924498
  H        42.3223412929       34.4174129140        3.5916826789
  H        22.0876020910        0.6919817867       12.3513766039
  H        11.5970622814       18.7126683392       12.3817206944
  H        52.2645617467       18.4307102751        3.6781194628
  H        49.2543861124       16.4783146182        3.5853946280
  H        10.1503779413       15.7983123466       12.2924803234
  H        50.8494836462       17.6923462823        3.9542863779
  H        10.0456838125       17.3947892551       12.0518901655
  H        20.2143857070        0.0018739765       12.0421228988
  H        39.1834471092       36.1244437012        3.6870812408
 Ni        30.5188354092       17.5281843021        2.9152705586
 Ni        30.7382706648       17.6413025772       12.2415738262
  O        10.6495105361       14.3649425233        5.4851256983
  O        12.6144890795       14.6561023767        6.5834084658
  O        49.1470688118       16.8463105554        7.9888142373
  O        50.3499844313       20.9362987744        5.6486390676
  O        48.3485927982       20.5932427379        6.6660267621
  O        11.0501315797       17.0546038851        6.5008371850
  O        50.3206094215       20.8822386825       10.4070020607
  O        48.3456313053       20.5873348781        9.3267397452
  O        49.5433580564       18.2467666709       10.0686367405
  O        12.3583468272       18.6247598229        8.0003189112
  O        48.6929839439       14.1490581162        6.7511030783
  O         8.2096232906       14.2101460115        9.3227554926
  O        10.7351185800       14.5073101819       10.6641516960
  O        12.5715731206       14.5828537298        9.3289093453
  O        22.8434152432        2.0421284044        5.4878580341
  O        21.6041047303        3.5906972732        6.5898630735
  O        42.0572955187       34.1367773055        7.9792307750
  O        37.9803820233       33.1332608260        5.5706559474
  O        39.2168455368       31.5740251716        6.6651535963
  O        20.3083646613        1.0393824654        6.5018978725
  O        38.0226534176       33.1833906518       10.4167786564
  O        39.2189646740       31.5819022290        9.3273312221
  O        40.6538214248       33.7688769215       10.0600814548
  O        18.2558601718        1.3752162066        7.9960000907
  O        44.6224129791       35.1004586992        6.7589233845
  O        24.2052672551       -0.0004386320        9.3206895180
  O        22.7524337663        2.0559170289       10.5829468255
  O        21.6241718693        3.5954082062        9.3421747376
  O        27.4622003757       18.6947379573        5.4897818276
  O        26.6931644752       16.9208139150        6.6737762912
  O        30.6429402717       19.3386777761        8.0596869256
  O        33.5405972587       16.3290166072        5.6577965747
  O        34.2734924241       18.1794904031        6.7337167994
  O        29.5311494985       17.0185941071        6.5795126688
  O        33.5952970886       16.2780037177       10.3986495440
  O        34.2171590165       18.2360767425        9.4167866013
  O        31.5926922777       18.2494502335       10.4280425963
  O        30.2918272125       15.1005432204        8.0765041195
  O        28.5519289012       21.0302757561        6.8202415673
  O        28.5006975263       20.9628455604        9.3284735728
  O        27.4575840381       18.6779338949       10.6572251980
  O        26.6906827159       16.9319782683        9.4188072815
  O        13.1458476017       18.6934219211       10.5861757104
  O        13.9171108427       16.9157930955        9.4042690472
  O        50.5957742218       19.3502485775        8.0199103007
  O        47.6820994156       16.3281522600       10.4181249359
  O        46.9518537367       18.1766575941        9.3243996537
  O        11.0692831034       17.0162487329        9.4897145027
  O        47.6749325406       16.3360299570        5.6522155804
  O        46.9240365700       18.2356527569        6.6620933290
  O        49.5676265653       18.3173440086        5.9821138368
  O        10.3164169198       15.1002695139        7.9970909529
  O        52.6695365133       21.0273232087        9.2414948429
  O        12.1464726192       20.8914469431        6.6734034231
  O        13.1053177576       18.6141181344        5.3257147109
  O        13.9556095552       16.9864085007        6.6651913732
  O        29.9930632101       14.4359196752       10.6597717102
  O        28.0697274937       14.6590716913        9.4858466792
  O        32.0707114625       16.8640218560        8.0764640022
  O        30.8963921430       20.9538501035       10.3319141252
  O        32.9020255550       20.5276656480        9.3459754286
  O        29.5727879410       17.0719684223        9.5728125831
  O        30.8600264064       20.8838076850        5.5992394108
  O        32.8620579421       20.5890313946        6.6515281550
  O        31.6105575793       18.2431780516        5.9208930347
  O        28.2300174252       18.6734866739        8.0705614595
  O        32.4983418372       14.2000097188        9.2392570511
  O        32.4028162499       14.2102489686        6.7474920797
  O        29.8370881990       14.4341367788        5.4912762150
  O        27.9585534924       14.5854441592        6.7541591360
  O        17.8893270723        1.9662834492       10.6634415761
  O        18.9563174687        3.5273468494        9.4084502468
  O        39.1685775578       34.1387391070        7.9971451357
  O        43.2799245826       33.0588200895       10.3315747167
  O        42.0340792171       31.5069514926        9.2413617634
  O        20.3172595433        1.0356920700        9.4803600759
  O        43.2765930233       33.1822700371        5.5748871629
  O        42.0056058216       31.5832297538        6.5835571943
  O        40.5784538115       33.7746950937        5.9356732798
  O        22.3662998938        1.3846121583        7.9965691630
  O        36.6724912765       35.0996558712        9.2336216432
  O        16.4453159655        0.0636677918        6.6680076985
  O        17.9367443689        2.0427675771        5.3268063088
  O        18.9192115703        3.5923709639        6.6657447947
  O        29.6868398787       18.8973939994        4.0846801150
  O        29.6353434670       19.1349930900       12.0675311588
  O        31.2226217967       16.1202858909        4.0879426338
  O        31.6278960178       15.9845708777       12.0779238145
  O        39.4567062219       35.2436734287        4.0021170036
  O        19.1410904221        0.0043458407       11.9904521113
  O        41.9694267920       35.1727781128        4.0871518098
  O        21.6910833200       -0.0695857729       11.8961012949
  O        51.3645791628       18.6142718325        4.0054174606
  O        10.7508048420       18.7471943020       11.9051171712
  O        50.0792390154       16.4132230223        4.0919265598
  O         9.5241767824       16.4832301739       11.9918747405
 Zr         9.2953528374       16.0527658301        6.1819829861
 Zr        49.8347960598       16.0073797201        9.7462869407
 Zr        22.0730236023        0.0278721950        6.1895203085
 Zr        42.4607988317       35.1527089302        9.8007281919
 Zr        29.5475449762       19.0600052621        6.2550538044
 Zr        29.5254017407       19.1989732454        9.8307145121
 Zr        11.0356142912       19.0526366159        9.8276791103
 Zr        11.0426379236       19.1550215464        6.2511686072
 Zr        31.3441162542       16.0170949566        9.8450706457
 Zr        31.3441873224       15.9855739724        6.2613542187
 Zr        18.6010260860       -0.0032032665        9.7640380508
 Zr        18.5061426187       -0.0098538986        6.2132239040
 Zr        12.2992223246       16.3229903856        7.9896819230
 Zr        48.6137697865       18.8329059995        8.0101797118
 Zr        20.3139353223        2.4719494132        7.9913937660
 Zr        40.6418297394       32.6852805960        7.9778650187
 Zr        28.3116881943       16.3245415082        8.0821547173
 Zr        32.6162911763       18.8300202824        7.9572017449
