     564
 i =      121, E =     -4680.1592710060
  C        11.8587194040       14.0536130741        5.7413785248
  C        12.4560210747       12.8904181874        5.0233222233
  C        11.7044598035       12.1718897703        4.0812598295
  C        12.2807342290       11.1095919940        3.3889717574
  C        13.6211935510       10.7394723693        3.6168953730
  C        14.3542010662       11.4426395368        4.5907849828
  C        13.7814110074       12.5076884974        5.2822641668
  C        14.2605778760        9.6487110698        2.8435175236
  C        14.2558380521        9.6565937164        1.4218095342
  C        13.7427184320       10.7587206625        0.6678740625
  C        49.1265387484       21.2333324780        5.8796796649
  C        48.5497478425       22.4012777657        5.1527212391
  C        49.2997542093       23.0684872718        4.1716180713
  C        48.7327900947       24.1075473466        3.4383534470
  C        47.4022874223       24.5092821921        3.6670492037
  C        46.6713885922       23.8605344026        4.6806900023
  C        47.2338476436       22.8156848387        5.4101154999
  C        46.7720397904       25.5869336752        2.8697408142
  C        46.7610707433       25.5573058166        1.4479800940
  C        47.2610398245       24.4422359946        0.7044814929
  C        14.8595526029        8.5701276237        0.7085419320
  C        14.8914296239        8.5967902661        3.5201585621
  C        49.1129216176       21.2033539157       10.1454497468
  C        48.5275605653       22.3647796023       10.8724357104
  C        49.2667321934       23.0253951685       11.8654672272
  C        48.6903882995       24.0599087302       12.5969551439
  C        47.3600375263       24.4568263730       12.3585862959
  C        46.6396975005       23.8120372622       11.3349322143
  C        47.2132683694       22.7761718755       10.6031050219
  C        46.7215546388       25.5317563309       13.1496211984
  C        46.7333254375       25.5281260166       14.5713254921
  C        47.2487506289       24.4289186145       15.3277215319
  C        40.6171080583       17.0776824587       15.3065118023
  C        40.6268826844       17.1044792106       12.4961461524
  C        11.8826302832       14.0862076542       10.2852326096
  C        12.4718424215       12.9103841111       10.9895389008
  C        11.7143157801       12.1775276582       11.9159228084
  C        12.2806731290       11.0949355995       12.5843099020
  C        13.6193592547       10.7208158645       12.3523056650
  C        14.3572919317       11.4359083985       11.3911081797
  C        13.7920750389       12.5172144746       10.7184535811
  C        14.2528312818        9.6239914005       13.1227061645
  C        14.2516561973        9.6440357553       14.5445469021
  C        13.7420470861       10.7531051376       15.2916181098
  C        22.5079371630        3.2431765647        5.7510689267
  C        23.2150263068        4.3480054465        5.0449882388
  C        24.2092435618        4.0676443203        4.0962823488
  C        24.8306363546        5.1070752514        3.4095235933
  C        24.4725402506        6.4480318664        3.6516404764
  C        23.5052534206        6.7199228355        4.6361282572
  C        22.8796434829        5.6823936085        5.3216911429
  C        25.0770377249        7.5543613040        2.8764101456
  C        25.0596665086        7.5453170059        1.4550339152
  C        24.3631839447        6.5446838326        0.7056276869
  C        38.2980444194       31.9277210469        5.8514345425
  C        37.5562136900       30.8398225188        5.1493057358
  C        36.5900300011       31.1485678697        4.1791054866
  C        35.9579203711       30.1321613876        3.4679289289
  C        36.2763794103       28.7800827706        3.7029852898
  C        37.2124075713       28.4787685777        4.7105567788
  C        37.8484119910       29.4942164941        5.4214268179
  C        35.6627432654       27.6933754971        2.9043054965
  C        35.6992495245       27.7089317023        1.4823668294
  C        36.4121537559       28.7088492263        0.7482681367
  C        25.6876457388        8.6144764100        0.7384540847
  C        25.6680566616        8.6304223512        3.5501350620
  C        38.3293625557       31.9599264266       10.1603669988
  C        37.6104104798       30.8870792018       10.9085781026
  C        36.6764378045       31.1973593459       11.9094347240
  C        36.0638152707       30.1812216103       12.6411262979
  C        36.3697292813       28.8268625602       12.3976290304
  C        37.2846240938       28.5265431773       11.3693517623
  C        37.8990167317       29.5392729315       10.6385097537
  C        35.7524701298       27.7295497397       13.1802511279
  C        35.7450186554       27.7274621790       14.6031703977
  C        36.4325456506       28.7187608990       15.3715747729
  C        46.1352509827       26.6207272950       15.2814596292
  C        46.0875686741       26.5800973317       12.4735714848
  C        22.4626945361        3.2545393239       10.2547229531
  C        23.1629660662        4.3618552190       10.9722136772
  C        24.1698932198        4.0731661371       11.9068927729
  C        24.8030560386        5.1019831875       12.5995630494
  C        24.4485904012        6.4478331351       12.3796591238
  C        23.4655563241        6.7299619098       11.4126446999
  C        22.8279220400        5.7013939168       10.7201572424
  C        25.0797917434        7.5439444349       13.1551883540
  C        25.0621659193        7.5391508801       14.5773280764
  C        24.3622499815        6.5430924508       15.3289494891
  C        26.5596675453       17.8248966968        5.7896938988
  C        25.2593340366       17.8890893584        5.0627014511
  C        25.0084419850       18.9032699657        4.1254994551
  C        23.8016770975       18.9350915364        3.4310680892
  C        22.8129229827       17.9564124205        3.6545259450
  C        23.0583550151       16.9662730298        4.6240151522
  C        24.2666968021       16.9293287709        5.3162318796
  C        21.5477453512       17.9520695638        2.8820775545
  C        21.5567881567       17.9481293456        1.4601766921
  C        22.7671829995       17.8395446814        0.7049307088
  C        34.4122082631       17.2212819539        5.8792480742
  C        35.7146634580       17.1561711523        5.1527662784
  C        35.9202709646       16.1820630158        4.1631865014
  C        37.1068003754       16.1561477932        3.4361328962
  C        38.1196176857       17.1056911896        3.6746155707
  C        37.9178884258       18.0583454215        4.6917319224
  C        36.7299725106       18.0871388796        5.4195428099
  C        39.3734973600       17.1082838999        2.8862569828
  C        39.3654341444       17.1087833454        1.4637420163
  C        38.1562160145       17.2216110067        0.7075221058
  C        20.3131203283       17.9667713776        0.7476946940
  C        20.3218749274       17.9432631165        3.5602182862
  C        34.4338494041       17.2376740212       10.1812800563
  C        35.7341422521       17.1394877457       10.9073704412
  C        35.9531615148       16.1414132325       11.8687119598
  C        37.1433249944       16.1104913899       12.5919535572
  C        38.1459984298       17.0751958512       12.3722761075
  C        37.9341138410       18.0473113639       11.3767907195
  C        36.7426554285       18.0836430981       10.6578478327
  C        39.3971695107       17.0865519934       13.1643962744
  C        39.3778326344       17.0957921836       14.5858902902
  C        38.1619354067       17.2122129046       15.3306364302
  C        35.1038916545       26.6519773489       15.3044770256
  C        35.1688901419       26.6560077771       12.4945090326
  C        26.5677150696       17.8278618004       10.3265988943
  C        25.2523891502       17.8861786411       11.0262000236
  C        24.9781439064       18.9169556410       11.9375188964
  C        23.7602744163       18.9504193013       12.6102518079
  C        22.7880913444       17.9548913710       12.3914721388
  C        23.0545987984       16.9500131711       11.4443248598
  C        24.2739060680       16.9131244952       10.7715631029
  C        21.5238099693       17.9445482313       13.1622648100
  C        21.5437210964       17.9439397957       14.5832892295
  C        22.7609763114       17.8384799079       15.3284384239
  C        14.0453903308       17.8322746594       10.2839048181
  C        15.3517379178       17.8984575552       11.0010095884
  C        15.6076525209       18.9112207539       11.9381201506
  C        16.8180864319       18.9402787929       12.6266740834
  C        17.8038724624       17.9593329187       12.3989833214
  C        17.5537004995       16.9718851807       11.4279739126
  C        16.3426933702       16.9384740141       10.7406411640
  C        19.0699844270       17.9478507332       13.1693049431
  C        19.0625006039       17.9479839589       14.5909433330
  C        17.8519684071       17.8453898468       15.3461020253
  C        46.8018763854       17.2161804029       10.1565793784
  C        45.5075070538       17.1456410123       10.8958330085
  C        45.3005701163       16.1602669732       11.8737916570
  C        44.1158928299       16.1321332981       12.6050682576
  C        43.1066926111       17.0892547328       12.3815632302
  C        43.3101739316       18.0534092508       11.3755862884
  C        44.4957640248       18.0852679578       10.6448861613
  C        41.8532361006       17.0927567141       13.1716548397
  C        41.8620859429       17.0920335835       14.5941053066
  C        43.0725688861       17.1903136905       15.3501865787
  C        20.3061546582       17.9633113014       15.3034470721
  C        20.2953484814       17.9269676058       12.4909022545
  C        46.7838905270       17.2325174408        5.8859954926
  C        45.4824034569       17.1279475789        5.1650299219
  C        45.2647416697       16.1269413495        4.2058189686
  C        44.0776472565       16.0973542073        3.4776008985
  C        43.0771962897       17.0659777572        3.6901419177
  C        43.2863281966       18.0385140985        4.6861079034
  C        44.4743486996       18.0740774006        5.4100015256
  C        41.8289253384       17.0819285398        2.8944126768
  C        41.8497287739       17.0857097801        1.4727881633
  C        43.0667071263       17.1844113008        0.7272570143
  C        46.1530596605       26.6371773703        0.7262154411
  C        46.1620527594       26.6560360471        3.5358504148
  C        14.0403430132       17.8290550284        5.7062206153
  C        15.3544725824       17.9006884426        5.0061370621
  C        15.6223732330       18.9239482073        4.0848378210
  C        16.8464205807       18.9645304025        3.4222882354
  C        17.8271808789       17.9803740276        3.6560123369
  C        17.5648360309       16.9829318279        4.6122803821
  C        16.3429388787       16.9421077046        5.2788131979
  C        19.0934764840       17.9659101123        2.8884160707
  C        19.0750742350       17.9565629280        1.4673727242
  C        17.8580948174       17.8496343099        0.7223001303
  C        28.8182873386       14.0912825576       10.3928159708
  C        28.2134385117       12.9116377483       11.0747681228
  C        28.9363599006       12.1736966140       12.0233619066
  C        28.3392410147       11.0969500796       12.6738748301
  C        27.0056376502       10.7334212275       12.3980996187
  C        26.3061022507       11.4489243155       11.4099541839
  C        26.9005135481       12.5263473743       10.7590057540
  C        26.3343699053        9.6544542311       13.1579484639
  C        26.3109322783        9.6836444984       14.5786539031
  C        26.8079166791       10.7984652051       15.3258243159
  C        32.1805295287       21.2308105422       10.1437183924
  C        32.7737989943       22.3960625768       10.8669510508
  C        32.0182802236       23.0810430921       11.8315331051
  C        32.5837134448       24.1236065217       12.5598845262
  C        33.9213452238       24.5103766046       12.3471298960
  C        34.6599804232       23.8432398810       11.3512590485
  C        34.0965976336       22.7958828119       10.6236831045
  C        34.5434385194       25.5893664565       13.1504722058
  C        34.5172771001       25.5673500141       14.5728134753
  C        33.9965662413       24.4568790505       15.3097770121
  C        25.6946152862        8.6073117590       15.2942034974
  C        25.7015295217        8.6034597789       12.4816624934
  C        32.0687334852       21.1993766364        5.8753075744
  C        32.6359817160       22.3692693586        5.1399033753
  C        31.8996816559       23.0197651048        4.1375751291
  C        32.4706406204       24.0607657274        3.4070053992
  C        33.7922341685       24.4813844591        3.6575424511
  C        34.5088122342       23.8454510747        4.6900232900
  C        33.9430980519       22.8013475606        5.4166295343
  C        34.4331610002       25.5654512056        2.8748531063
  C        34.4593896763       25.5557928234        1.4520860174
  C        33.9673011770       24.4520080003        0.6865659639
  C        40.6103698193       17.0795063981        0.7518965036
  C        40.5992313618       17.1110036212        3.5622301999
  C        28.7321633604       14.0631411159        5.7868841890
  C        28.1150055374       12.9161010686        5.0599228171
  C        28.8521324459       12.2004747473        4.1038223403
  C        28.2656692877       11.1459794867        3.4099286544
  C        26.9263935710       10.7793321042        3.6488138278
  C        26.2064925859       11.4788743319        4.6350475062
  C        26.7914198163       12.5352787351        5.3304889519
  C        26.2837490183        9.6913806970        2.8750823531
  C        26.2858058559        9.7030069526        1.4535833645
  C        26.7936104292       10.8088655475        0.7017668385
  C        18.1352294426        3.1807792344       10.3171420093
  C        17.4056796759        4.2779322756       11.0157142647
  C        16.3898571019        3.9993843260       11.9430594565
  C        15.7419068028        5.0392335061       12.6065505860
  C        16.0936756579        6.3830039752       12.3669794030
  C        17.0831348393        6.6527354156       11.4033558464
  C        17.7324262708        5.6155132988       10.7383047412
  C        15.4692357282        7.4906274196       13.1300422617
  C        15.4845017552        7.4899479668       14.5517578568
  C        16.1861202312        6.4963733124       15.3049206484
  C        42.9458332945       31.8594591138       10.0726626482
  C        43.6459643974       30.7717709236       10.8168088606
  C        44.5914764532       31.0930692196       11.8028999481
  C        45.1970847750       30.0875185114       12.5506243120
  C        44.8707473850       28.7344576828       12.3356265802
  C        43.9449223747       28.4201306895       11.3224123670
  C        43.3362057233       29.4252906603       10.5743133431
  C        45.4882828433       27.6551679860       13.1388515879
  C        45.4924911842       27.6808257064       14.5605452456
  C        44.8053026591       28.6888115852       15.3071611242
  C        14.8556976135        8.5625483098       15.2641048745
  C        14.8739029661        8.5623554743       12.4514451252
  C        42.9464831472       31.9614447527        5.8091724901
  C        43.6914309730       30.8853134482        5.0954346901
  C        44.6562467451       31.1912741925        4.1233694035
  C        45.2775865296       30.1716932222        3.4054867270
  C        44.9538515440       28.8213795499        3.6431769160
  C        44.0200691265       28.5236948151        4.6536672346
  C        43.3919625010       29.5404410943        5.3660058843
  C        45.5627376364       27.7240030086        2.8577887315
  C        45.5330185772       27.7173019546        1.4364929935
  C        44.8266163219       28.7074839902        0.6835550197
  C        35.0772624262       26.6444606494        0.7503828348
  C        35.0470490929       26.6215252496        3.5610795229
  C        18.1482872505        3.2467998141        5.7067448944
  C        17.4297528195        4.3436103349        4.9972672968
  C        16.4144219180        4.0522912422        4.0738552818
  C        15.7660033896        5.0828817424        3.3984893758
  C        16.1207217096        6.4281303007        3.6210311579
  C        17.1122586826        6.7115695788        4.5781064362
  C        17.7600084071        5.6826955019        5.2578638995
  C        15.4901064531        7.5237682550        2.8485775268
  C        15.4958609164        7.5070766261        1.4274374652
  C        16.1924450481        6.5052535907        0.6807354497
  H        10.6724335157       12.4662707303        3.9040623350
  H        11.6944957822       10.5513754952        2.6621916826
  H        15.3911157294       11.1677518916        4.7727357752
  H        14.3507721636       13.0705300212        6.0180733593
  H        13.3759291482       11.6309638252        1.2011423602
  H        50.3224268383       22.7483793730        3.9868104582
  H        49.3192211825       24.6227319151        2.6806808634
  H        45.6419315134       24.1613814089        4.8639381219
  H        46.6628570757       22.2905492327        6.1723025160
  H        47.6295260776       23.5758338272        1.2461592484
  H        14.8718541654        8.5880643874        4.6084676575
  H        50.2867046120       22.7024110515       12.0605233223
  H        49.2687166737       24.5752737028       13.3605655533
  H        45.6103383265       24.1093678897       11.1457591856
  H        46.6524523506       22.2540935283        9.8314798180
  H        47.6075043691       23.5517791939       14.7968444878
  H        40.6301210996       17.0758441142       11.4081424244
  H        48.6870733465       14.0951330776        7.8000376390
  H        10.6809763580       12.4669559371       12.0935159108
  H        11.6888639416       10.5248280357       13.2972229940
  H        15.3926152502       11.1577148460       11.2050084453
  H        14.3644562231       13.0863118297        9.9897407198
  H        13.3753120383       11.6217506961       14.7529729555
  H        47.9300557477       14.2187414302        9.7107190023
  H        47.7798949251       14.3739411084        6.4953994980
  H        49.0821983557       18.5518742216       10.8670054169
  H        10.4158413509       14.1343449072        7.9988281758
  H        24.4728083568        3.0292112943        3.9083542514
  H        25.6030396495        4.8906919800        2.6747184346
  H        23.2218078059        7.7526369259        4.8283132521
  H        22.1110166987        5.8816027377        6.0643788129
  H        23.7981954802        5.7886442837        1.2430787107
  H        36.3589515635       32.1931115643        3.9840454273
  H        35.2094681892       30.3770799154        2.7174681333
  H        37.4668263135       27.4381113393        4.9008918605
  H        38.5961413481       29.2672855816        6.1777886574
  H        36.9750475735       29.4582439534        1.2970270398
  H        25.6963382806        8.6144679163        4.6381421746
  H        36.4492338192       32.2418493185       12.1106756661
  H        35.3330700607       30.4301254158       13.4075105275
  H        37.5354380863       27.4860891422       11.1734739341
  H        38.6255568935       29.3095330939        9.8628306715
  H        37.0117916666       29.4755475568       14.8503384748
  H        46.1089423244       26.5874785731       11.3855345310
  H        44.6681860623       35.1161233747        7.8139935141
  H        24.4460722019        3.0342394931       12.0721323602
  H        25.5866350165        4.8724297080       13.3185172992
  H        23.1814338670        7.7651518210       11.2348091995
  H        22.0525875048        5.9150792916        9.9880668409
  H        23.7959141739        5.7863929841       14.7938440768
  H        44.9534108859       34.3898620971        9.6947826925
  H        44.9015622535       34.2066748050        6.4906916168
  H        40.6656669376       33.2085958261       10.8530251908
  H        23.1502240820        1.9575943330        8.0041684242
  H        25.7680040926       19.6634358631        3.9582286226
  H        23.6087576025       19.7262079342        2.7096776336
  H        22.3032749953       16.2035985601        4.8030224232
  H        24.4707813135       16.1525336908        6.0493394634
  H        23.7069309000       17.7237555303        1.2371851715
  H        35.1312761648       15.4588605873        3.9712973241
  H        37.2642060857       15.3925551355        2.6775799072
  H        38.6911840895       18.7999178342        4.8814676645
  H        36.5590438676       18.8380036887        6.1875746948
  H        37.2175782134       17.3488033939        1.2392555226
  H        20.3246840484       17.9699551394        4.6484234777
  H        35.1746393951       15.4031834230       12.0459521918
  H        37.3099137835       15.3337523348       13.3351822171
  H        38.7007372940       18.7991703049       11.2011493131
  H        36.5595778201       18.8520282321        9.9106158628
  H        37.2276703832       17.3306139780       14.7891708808
  H        35.1548792979       26.6774307940       11.4064139573
  H        28.5012908245       21.0706445538        7.8833734742
  H        25.7303935798       19.6853542474       12.0997976744
  H        23.5467283040       19.7514483021       13.3146853659
  H        22.3100336587       16.1758255493       11.2707998067
  H        24.4977566283       16.1255723049       10.0560469905
  H        23.6958767185       17.7229529607       14.7878007833
  H        29.0116179085       21.7115789725        9.7412459210
  H        29.2118088380       21.6871592544        6.5620073803
  H        32.1077290878       18.5319906456       10.9189271218
  H        27.3726173409       19.0219653133        8.0833173183
  H        14.8471056836       19.6691340420       12.1116627599
  H        17.0150614013       19.7298314915       13.3486773367
  H        18.3066619506       16.2081026423       11.2447016753
  H        16.1350030517       16.1635763144       10.0066249551
  H        16.9121241291       17.7295769824       14.8143312066
  H        46.0857387210       15.4300105020       12.0549599637
  H        43.9580249963       15.3605717462       13.3554834554
  H        42.5398276465       18.8008390323       11.1972785025
  H        44.6678661220       18.8446730379        9.8856437157
  H        44.0130905036       17.3031357959       14.8185724104
  H        20.2930566972       17.9492672770       11.4026095565
  H        46.0413003170       15.3852856389        4.0329939735
  H        43.9126005021       15.3190414499        2.7357039758
  H        42.5202165931       18.7919032787        4.8572605548
  H        44.6550092244       18.8435506395        6.1566202899
  H        44.0029096701       17.2915311731        1.2675204086
  H        46.1988509241       26.6825749083        4.6232972330
  H        52.7411949978       21.0626381521        8.1946218515
  H        14.8622366722       19.6813644935        3.9070327966
  H        17.0565071193       19.7613195798        2.7120333003
  H        18.3150392673       16.2168746702        4.7971606009
  H        16.1232564439       16.1613449877        6.0029246957
  H        16.9229184202       17.7373772805        1.2626828030
  H        52.3222151111       21.6735620507        6.2947438171
  H        52.0134163366       21.7024871192        9.4954539696
  H        49.0673967756       18.6079391899        5.2041857528
  H        13.2471535153       19.0164504472        7.9759556751
  H        29.9627657776       12.4611719106       12.2388938506
  H        28.9001481477       10.5251732107       13.4099656909
  H        25.2761580154       11.1767802370       11.1886280967
  H        26.3565809016       13.1011402486       10.0136737683
  H        27.1736028633       11.6675329439       14.7870352710
  H        30.9908003605       22.7706306215       12.0055007466
  H        31.9910468880       24.6532521008       13.3025691660
  H        35.6954830535       24.1305419054       11.1803328011
  H        34.6734905465       22.2578047060        9.8749218403
  H        33.6449662141       23.5865934225       14.7629873320
  H        25.7379811720        8.5828736607       11.3938896883
  H        30.8845327904       22.6864594009        3.9334073335
  H        31.8915704163       24.5639224624        2.6356718587
  H        35.5316624359       24.1568236636        4.8916844677
  H        34.5053777598       22.2894048762        6.1939095075
  H        33.5932936763       23.5776728242        1.2117464173
  H        40.5950806003       17.0824573522        4.6502133995
  H        32.5021397626       14.1600974102        8.1755048623
  H        29.8877795045       12.4797707928        3.9252534570
  H        28.8433017154       10.5873614266        2.6766918348
  H        25.1705407103       11.2063883799        4.8260683482
  H        26.2329033372       13.0927888090        6.0786754929
  H        27.1474119709       11.6859806373        1.2358243221
  H        33.3005135023       14.2560414929        6.3754921830
  H        33.4110977795       14.3975242775        9.5165420701
  H        32.0459867130       18.5005891571        5.0811725349
  H        30.1997744427       14.1478166682        8.0864150027
  H        16.1179561509        2.9628230358       12.1293865205
  H        14.9523855222        4.8196947946       13.3220855405
  H        17.3654720808        7.6856596873       11.2103597960
  H        18.5145268902        5.8182977034       10.0105613723
  H        16.7525612893        5.7389595639       14.7714036762
  H        44.8276642490       32.1401561182       11.9771723870
  H        45.9369119250       30.3412405903       13.3066152809
  H        43.6822552890       27.3780640261       11.1522295172
  H        42.5996120613       29.1899575013        9.8096213324
  H        44.2298415623       29.4364929997       14.7688499284
  H        14.8501408862        8.5455618048       11.3632265117
  H        44.8998362309       32.2339572174        3.9319919007
  H        46.0246341056       30.4128830550        2.6523798890
  H        43.7630212569       27.4839793546        4.8451835806
  H        42.6452892385       29.3176687306        6.1242919283
  H        44.2680151779       29.4703036617        1.2181421362
  H        35.0012720021       26.6334916809        4.6484640527
  H        36.6052657371       35.1339378008        8.1806955233
  H        16.1432702837        3.0127032529        3.9042984117
  H        14.9735514398        4.8559739990        2.6885649389
  H        17.3958222849        7.7470470969        4.7548452219
  H        18.5429367282        5.8932026834        5.9825514079
  H        16.7639002527        5.7550200452        1.2191602791
  H        36.2788632419       34.4820218067        6.2734639556
  H        36.3809213581       34.2089588300        9.4996454647
  H        40.5788860050       33.2017032742        5.1543647325
  H        17.4708270397        1.9470999288        7.9741076628
  H        28.8236571635       19.0319602268       12.3607153017
  H        28.6976029946       18.8891912186        3.7365430125
  H        30.7978021590       15.4609544980        3.6519296410
  H        31.7098416216       15.8023829678       12.5511043016
  H        18.8542980844        0.8691209353       12.3352965679
  H        40.5281094456       35.2289617906        3.9521420950
  H        42.3231412911       34.4179682593        3.5908740692
  H        22.0876004840        0.6921651621       12.3514500944
  H        11.5965739720       18.7127606619       12.3825908114
  H        52.2648026148       18.4312142875        3.6776428426
  H        49.2547803597       16.4766672868        3.5843730359
  H        10.1508581803       15.7983487325       12.2923959889
  H        50.8499073159       17.6927145418        3.9540067570
  H        10.0461524826       17.3948256624       12.0519227848
  H        20.2158478489        0.0022690595       12.0418341992
  H        39.1836468582       36.1243959006        3.6864609986
 Ni        30.3945011059       17.5955624483        2.5843025178
 Ni        30.9040058502       16.6692965618        0.0808560055
 Ni        29.7190267043       18.4724652555        0.0806903922
 Ni        30.3566608194       17.5750922459       13.4899425862
  O        10.6498734731       14.3650880265        5.4858372662
  O        12.6131616472       14.6573285666        6.5839145804
  O        49.1476325742       16.8459933365        7.9897014486
  O        50.3500981095       20.9362715562        5.6482577857
  O        48.3484943809       20.5932738395        6.6660041152
  O        11.0509372914       17.0540345827        6.5006080022
  O        50.3208033181       20.8817884667       10.4068361526
  O        48.3466363791       20.5867268379        9.3270304262
  O        49.5433070638       18.2483423911       10.0683576852
  O        12.3587929303       18.6245865522        7.9998064529
  O        48.6931219602       14.1486669115        6.7512711970
  O         8.2098403459       14.2104387347        9.3225630546
  O        10.7352818686       14.5069013117       10.6643232694
  O        12.5717146787       14.5829271160        9.3286269728
  O        22.8441136461        2.0425626135        5.4873659901
  O        21.6044278212        3.5916353254        6.5903789996
  O        42.0578747337       34.1370122463        7.9789884206
  O        37.9813543026       33.1366393020        5.5724100742
  O        39.2171955563       31.5751231923        6.6656166092
  O        20.3083333788        1.0394836311        6.5018900400
  O        38.0240044569       33.1843814772       10.4158980407
  O        39.2179489341       31.5825108702        9.3277731986
  O        40.6521703503       33.7690029251       10.0601974387
  O        18.2557118834        1.3762083514        7.9968892715
  O        44.6222144216       35.1005011888        6.7587557962
  O        24.2054547012       -0.0000464781        9.3207895260
  O        22.7528906520        2.0567149233       10.5831216181
  O        21.6242829519        3.5955628055        9.3420579035
  O        27.4560652853       18.6940055592        5.4910887379
  O        26.6914309266       16.9141834489        6.6697927670
  O        30.6277494377       19.3462425392        8.0085911754
  O        33.5348117576       16.3402077606        5.5821306692
  O        34.2656703431       18.1681247622        6.7307410210
  O        29.5322627407       17.0092110154        6.5757385427
  O        33.5472852666       16.3365989275       10.4118018401
  O        34.2915998818       18.2359421814        9.4004622741
  O        31.6502973992       18.3178789087       10.0883710849
  O        30.2959163447       15.1137258709        8.0752085987
  O        28.5487112128       21.0247677989        6.8323253254
  O        28.5153995132       20.9468284035        9.4032534657
  O        27.4588444049       18.6797862795       10.6594518129
  O        26.6909130646       16.9283412754        9.4193389643
  O        13.1464876249       18.6937602787       10.5861904531
  O        13.9180914473       16.9160854633        9.4041285529
  O        50.5957365727       19.3502493132        8.0206743422
  O        47.6823077282       16.3271458289       10.4172600997
  O        46.9502676178       18.1756555668        9.3253269358
  O        11.0690213846       17.0158739479        9.4895481571
  O        47.6745722404       16.3360796742        5.6526216310
  O        46.9251799465       18.2360447900        6.6631831854
  O        49.5686295827       18.3177783232        5.9823192100
  O        10.3186508711       15.1002081008        7.9975032295
  O        52.6707228194       21.0280253000        9.2418076418
  O        12.1468010119       20.8913991200        6.6733153153
  O        13.1049290357       18.6143227840        5.3261036790
  O        13.9557823593       16.9867416739        6.6650743175
  O        30.0016635871       14.4505518298       10.7254749834
  O        28.0893041827       14.6515471817        9.4995699844
  O        32.0680943663       16.8530418404        8.0200845309
  O        30.9637613476       20.9420165432       10.4076501325
  O        32.9443763924       20.5969993692        9.3314437818
  O        29.5627160089       17.0673019436        9.5709243717
  O        30.8457359516       20.8817151522        5.6544923068
  O        32.8659404845       20.5819146116        6.6615116933
  O        31.6070974096       18.2442676740        5.9090197234
  O        28.2592205101       18.6259627800        8.0696052673
  O        32.4912935387       14.2169171053        9.2508550279
  O        32.3999718045       14.2210895519        6.7395869948
  O        29.9025245082       14.4340737259        5.4231616906
  O        28.0449339670       14.5799104509        6.7374500433
  O        17.8892088317        1.9664433754       10.6628085999
  O        18.9561577966        3.5270896090        9.4080862613
  O        39.1684682414       34.1385568737        7.9971718070
  O        43.2801264846       33.0588713133       10.3317330702
  O        42.0342774169       31.5064213510        9.2416399392
  O        20.3173350007        1.0362768443        9.4803490578
  O        43.2760230313       33.1824348242        5.5748778183
  O        42.0050481399       31.5841952173        6.5829346538
  O        40.5790476369       33.7749761034        5.9360757767
  O        22.3671258976        1.3843609836        7.9981359469
  O        36.6728084876       35.0996415612        9.2333672629
  O        16.4456052180        0.0641501652        6.6683023204
  O        17.9364110247        2.0432154871        5.3263344304
  O        18.9189432880        3.5931671169        6.6658196425
  O        29.6231922262       18.7628802686        4.0113153731
  O        29.7332045357       18.8342116467       12.0721324741
  O        31.0180352374       16.3432350583        3.9994105557
  O        31.2981587445       16.5503032464       12.0864018202
  H        30.8663167258       16.4225257279       14.4976864001
  H        29.4250346446       18.4451124895       14.5003859059
  O        39.4567913847       35.2437820764        4.0020264387
  O        19.1421927305        0.0047060948       11.9904700629
  O        41.9694198517       35.1724143422        4.0871165997
  O        21.6913529913       -0.0694663128       11.8960328971
  O        51.3648330391       18.6143911580        4.0052835626
  O        10.7507961033       18.7472350220       11.9050495306
  O        50.0791796494       16.4127337379        4.0917381945
  O         9.5247365750       16.4830804765       11.9911283485
 Zr         9.2966311246       16.0527985376        6.1822853263
 Zr        49.8361610108       16.0070045638        9.7466372919
 Zr        22.0731418503        0.0294797341        6.1891834455
 Zr        42.4607530234       35.1530638933        9.8007856384
 Zr        29.5565369979       19.0383904526        6.2284391236
 Zr        29.5752017761       19.1680105337        9.8594669598
 Zr        11.0373543768       19.0523879083        9.8278155048
 Zr        11.0434363893       19.1551310954        6.2512647878
 Zr        31.3291805972       16.1072266451        9.8471282818
 Zr        31.3419488294       16.0100887489        6.2160625894
 Zr        18.6009513567       -0.0021021976        9.7637570339
 Zr        18.5065088543       -0.0079689771        6.2135719510
 Zr        12.3011572328       16.3233534773        7.9903648582
 Zr        48.6158749245       18.8329481518        8.0103420952
 Zr        20.3145656639        2.4729217143        7.9907821553
 Zr        40.6426033523       32.6864760886        7.9783114299
 Zr        28.3234288613       16.3159428935        8.0847617388
 Zr        32.5996938388       18.8332450275        8.0229957537
  H        31.1296878600       16.5177259180        1.6286789823
  H        29.6923257192       18.7163151172        1.6343412896
