     559
 i =      118, E =     -4171.2153187049
  C        11.8587151612       14.0534532447        5.7415325152
  C        12.4561584741       12.8905281658        5.0232658529
  C        11.7044501384       12.1717090256        4.0815229020
  C        12.2807431688       11.1094691749        3.3891894623
  C        13.6212717340       10.7394936435        3.6169346031
  C        14.3544519382       11.4429569762        4.5904827241
  C        13.7816477587       12.5079583764        5.2820281717
  C        14.2606553904        9.6487645202        2.8435237160
  C        14.2556028206        9.6565061830        1.4218217663
  C        13.7423654234       10.7585743759        0.6678928745
  C        49.1266907256       21.2333304581        5.8797084684
  C        48.5498973704       22.4012673402        5.1527271953
  C        49.2998595717       23.0684190574        4.1715558774
  C        48.7329132814       24.1075061985        3.4383058148
  C        47.4024269094       24.5092824504        3.6670502612
  C        46.6715770804       23.8606102199        4.6807791035
  C        47.2340314411       22.8157412857        5.4101822803
  C        46.7721641006       25.5869213876        2.8697306870
  C        46.7611791699       25.5572632341        1.4479740453
  C        47.2611383413       24.4421734670        0.7044843062
  C        14.8593842997        8.5700910879        0.7085371483
  C        14.8916023014        8.5968991321        3.5201576558
  C        49.1131477097       21.2034123269       10.1453217171
  C        48.5278438790       22.3648416118       10.8723994618
  C        49.2669403287       23.0251619071       11.8656900361
  C        48.6906795409       24.0597574268       12.5971422779
  C        47.3604544922       24.4569574135       12.3585601471
  C        46.6402404495       23.8125122205       11.3345961290
  C        47.2137161204       22.7765800618       10.6028022097
  C        46.7220020300       25.5318754520       13.1496053501
  C        46.7335804174       25.5281308809       14.5713163694
  C        47.2489307621       24.4288834459       15.3277169964
  C        40.6247689512       17.0570166552       15.3062151239
  C        40.6344951235       17.1083425579       12.4962332316
  C        11.8828981961       14.0863110980       10.2854256998
  C        12.4718270991       12.9102838737       10.9894300344
  C        11.7141944708       12.1774855135       11.9157817345
  C        12.2804900721       11.0949221681       12.5842436374
  C        13.6191382048       10.7206421714       12.3522052573
  C        14.3571461623       11.4357013572       11.3910287804
  C        13.7920004862       12.5169774234       10.7182853536
  C        14.2525699608        9.6238771125       13.1227140846
  C        14.2513222031        9.6439084695       14.5445575474
  C        13.7415982743       10.7529230077       15.2916380260
  C        22.5058350496        3.2426923636        5.7476284796
  C        23.2078932315        4.3451720551        5.0336924329
  C        24.2048273771        4.0613941604        4.0887482401
  C        24.8254826287        5.0979358540        3.3971338363
  C        24.4636380873        6.4393651629        3.6303766085
  C        23.4909440077        6.7147791798        4.6085813890
  C        22.8664577513        5.6801899367        5.2994661779
  C        25.0736051404        7.5434781241        2.8567067957
  C        25.0680331111        7.5330767564        1.4357568639
  C        24.3748998785        6.5327373261        0.6834644177
  C        38.3047044285       31.9284898003        5.8461125612
  C        37.5800348607       30.8380769990        5.1311190395
  C        36.6192726542       31.1409955677        4.1541123769
  C        36.0040094256       30.1206619058        3.4336845618
  C        36.3340916207       28.7712947806        3.6681915825
  C        37.2675121458       28.4758001397        4.6797381443
  C        37.8867271201       29.4948858239        5.3991245489
  C        35.7269086431       27.6795302944        2.8731604687
  C        35.7454516494       27.6960428833        1.4514685979
  C        36.4483288043       28.6974630236        0.7103105056
  C        25.7028430381        8.6010682415        0.7233404706
  C        25.6572877672        8.6209924855        3.5337570671
  C        38.3257667008       31.9607563518       10.1548380079
  C        37.5972831766       30.8870197699       10.8918126585
  C        36.6636150728       31.1960865369       11.8930295344
  C        36.0464843494       30.1782475929       12.6180709637
  C        36.3480699130       28.8245944390       12.3667611463
  C        37.2587690737       28.5253947414       11.3347834134
  C        37.8778474364       29.5399324563       10.6105427017
  C        35.7356793562       27.7269536302       13.1519378572
  C        35.7495609721       27.7204534909       14.5742893885
  C        36.4502204541       28.7093911019       15.3336960471
  C        46.1354735216       26.6207215547       15.2814451010
  C        46.0881201418       26.5802798339       12.4735527031
  C        22.4656065273        3.2541884529       10.2515468634
  C        23.1726836553        4.3604404236       10.9624273554
  C        24.1842068433        4.0698936218       11.8915581504
  C        24.8230391888        5.0978169860       12.5798688300
  C        24.4692083750        6.4439961386       12.3613508423
  C        23.4826383327        6.7279917962       11.3987001114
  C        22.8396526422        5.7003532211       10.7099674245
  C        25.1019965553        7.5377908316       13.1381105686
  C        25.0829679912        7.5294812712       14.5599142788
  C        24.3794515138        6.5327994669       15.3071805977
  C        26.5560430544       17.8307369396        5.7876764985
  C        25.2527375014       17.8975763129        5.0668437748
  C        24.9979251601       18.9183547533        4.1377125595
  C        23.7917419051       18.9500305746        3.4420279374
  C        22.8075149569       17.9643406315        3.6548724190
  C        23.0563136911       16.9678243374        4.6172673505
  C        24.2639528505       16.9311764923        5.3114027015
  C        21.5443138464       17.9601632478        2.8777958516
  C        21.5578172247       17.9630328485        1.4557592695
  C        22.7710707565       17.8595710704        0.7047933269
  C        34.4413105698       17.1638061337        5.8956653758
  C        35.7430976863       17.0903632225        5.1731224554
  C        35.9418160707       16.1111329294        4.1873209176
  C        37.1227439082       16.0864914364        3.4507530230
  C        38.1343052313       17.0394781311        3.6794962533
  C        37.9395078158       17.9955437856        4.6947110708
  C        36.7561728817       18.0265512650        5.4285489336
  C        39.3840276521       17.0483318783        2.8857892334
  C        39.3741221007       17.0568857587        1.4636927597
  C        38.1631004430       17.1612884431        0.7094653235
  C        20.3166813249       17.9830830901        0.7386210972
  C        20.3158021558       17.9449692691        3.5509919190
  C        34.4485472566       17.1762938615       10.1828031656
  C        35.7512201727       17.0961599363       10.8999095067
  C        35.9816533346       16.0932347152       11.8545967234
  C        37.1687920331       16.0755987304       12.5814910588
  C        38.1567278139       17.0573212793       12.3712007294
  C        37.9349292234       18.0327705126       11.3808875686
  C        36.7454233362       18.0573444884       10.6583003390
  C        39.4056997531       17.0763488804       13.1649322221
  C        39.3851850219       17.0704810605       14.5862645463
  C        38.1683498371       17.1651413912       15.3324702356
  C        35.1173935285       26.6437835593       15.2813996748
  C        35.1406203336       26.6569132681       12.4718546670
  C        26.5962638560       17.8108053471       10.3321963726
  C        25.2831705173       17.8846774033       11.0362120645
  C        25.0149760718       18.9158205214       11.9490456342
  C        23.7927535050       18.9606755334       12.6152596921
  C        22.8103597844       17.9757640895       12.3911441214
  C        23.0727332971       16.9699463878       11.4433221287
  C        24.2942714952       16.9226829679       10.7757340537
  C        21.5416012301       17.9713196453       13.1569864064
  C        21.5556593873       17.9682344824       14.5784277100
  C        22.7698161573       17.8621471112       15.3283746296
  C        14.0489861840       17.8347050387       10.2820681009
  C        15.3595199818       17.9072430364       10.9932047625
  C        15.6199751563       18.9277752040       11.9209113848
  C        16.8335461410       18.9630571143       12.6043775944
  C        17.8194722826       17.9805935030       12.3825112353
  C        17.5651912525       16.9858764446       11.4197777737
  C        16.3511556733       16.9465495414       10.7370015014
  C        19.0860100070       17.9725257437       13.1550092726
  C        19.0738947303       17.9702955920       14.5769394960
  C        17.8605632740       17.8660677454       15.3275073117
  C        46.8037852014       17.2166625376       10.1561524977
  C        45.5107223960       17.1481455277       10.8963620683
  C        45.3037159199       16.1623273791       11.8735267951
  C        44.1198354744       16.1361383500       12.6054767620
  C        43.1130638319       17.0957240945       12.3826878429
  C        43.3168047522       18.0608808634       11.3781274238
  C        44.5016218490       18.0907144060       10.6466173606
  C        41.8602034175       17.0964172016       13.1718723883
  C        41.8692195421       17.0869982316       14.5938525176
  C        43.0796687515       17.1905890013       15.3490602369
  C        20.3151056730       17.9849070918       15.2940513236
  C        20.3145509766       17.9537102241       12.4813712145
  C        46.7860251372       17.2310056824        5.8868324367
  C        45.4863409575       17.1200625158        5.1651522591
  C        45.2800411287       16.1204759353        4.2020614238
  C        44.0951286715       16.0830544469        3.4714068990
  C        43.0863683068       17.0418144234        3.6870620611
  C        43.2841635623       18.0128706451        4.6866277585
  C        44.4706105703       18.0568587251        5.4123526560
  C        41.8387764548       17.0475872728        2.8915941988
  C        41.8587067845       17.0604563263        1.4705580212
  C        43.0745269877       17.1762339329        0.7258934654
  C        46.1531730306       26.6371332208        0.7262033531
  C        46.1622332752       26.6560708925        3.5358342857
  C        14.0402241590       17.8283170781        5.7043866088
  C        15.3522488794       17.8983956473        4.9997174431
  C        15.6178276373       18.9221610808        4.0781119895
  C        16.8396377024       18.9630560024        3.4112873473
  C        17.8217334971       17.9792559151        3.6412751410
  C        17.5610710806       16.9801902274        4.5966292243
  C        16.3413703423       16.9390360554        5.2674891577
  C        19.0893701904       17.9695087710        2.8750441177
  C        19.0759150697       17.9682613533        1.4537610716
  C        17.8617375340       17.8648756701        0.7036663336
  C        28.8126161507       14.0832568085       10.3558684114
  C        28.2146202314       12.9044541513       11.0444320119
  C        28.9467479224       12.1729668198       11.9910030752
  C        28.3567168629       11.0970944782       12.6498735708
  C        27.0220940832       10.7297632614       12.3848825561
  C        26.3125402241       11.4414081333       11.4008363825
  C        26.8993879440       12.5176898456       10.7412873974
  C        26.3576054703        9.6476117970       13.1463836178
  C        26.3366065236        9.6716418373       14.5672433562
  C        26.8395800245       10.7814529671       15.3176348390
  C        32.1772685237       21.2394350897       10.1087726998
  C        32.7559157677       22.4058528138       10.8358726424
  C        32.0002698388       23.0761534456       11.8109911403
  C        32.5638941618       24.1140478753       12.5480831279
  C        33.8974892065       24.5123072479       12.3307580119
  C        34.6343899798       23.8608268019       11.3229423520
  C        34.0750459134       22.8169373887       10.5891106706
  C        34.5227703367       25.5893225178       13.1337416253
  C        34.5163050700       25.5626280486       14.5561039879
  C        34.0031262058       24.4520186576       15.2980405980
  C        25.7161273622        8.5952139974       15.2793983726
  C        25.7234454272        8.5989540201       12.4675825768
  C        32.1135834490       21.2043710022        5.8604298771
  C        32.7041443513       22.3711474942        5.1413276339
  C        31.9606274587       23.0412060112        4.1568678820
  C        32.5370621146       24.0732840649        3.4203227767
  C        33.8703206379       24.4667462276        3.6491071140
  C        34.5953825917       23.8126974833        4.6643193433
  C        34.0246530003       22.7729940248        5.3953550062
  C        34.5069334609       25.5470611429        2.8583097846
  C        34.5084262424       25.5413616597        1.4354329854
  C        33.9983932219       24.4421435839        0.6752547062
  C        40.6188380592       17.0464124995        0.7510514407
  C        40.6100517815       17.0594063043        3.5604155146
  C        28.6604001316       14.0563739468        5.8168270477
  C        28.0616389405       12.9064158721        5.0831171188
  C        28.8203378110       12.1939278374        4.1415179559
  C        28.2501546998       11.1397297700        3.4337140258
  C        26.9070982549       10.7708099125        3.6456073206
  C        26.1655785880       11.4672133628        4.6182465888
  C        26.7335887011       12.5236995304        5.3270083794
  C        26.2799996918        9.6803479836        2.8630803913
  C        26.2982623808        9.6889383477        1.4418637875
  C        26.8189355411       10.7909447999        0.6934882063
  C        18.1353249686        3.1809647462       10.3171565951
  C        17.4057280891        4.2780766894       11.0156941796
  C        16.3897394246        3.9994731858       11.9428403753
  C        15.7417433062        5.0392918879       12.6063229216
  C        16.0936712254        6.3830549884       12.3669736126
  C        17.0833474210        6.6528390627       11.4035991243
  C        17.7327114140        5.6156511368       10.7385553037
  C        15.4690890911        7.4905993097       13.1300383758
  C        15.4843590565        7.4899337505       14.5517470607
  C        16.1860274632        6.4963832701       15.3048806368
  C        42.9458299485       31.8595163507       10.0728801050
  C        43.6463121515       30.7717898503       10.8167597984
  C        44.5917176624       31.0931770401       11.8029147459
  C        45.1974705376       30.0876695896       12.5505945940
  C        44.8711935970       28.7345967109       12.3356290348
  C        43.9455360717       28.4201841701       11.3222888168
  C        43.3366672924       29.4252980206       10.5742433788
  C        45.4887618185       27.6553115967       13.1388257952
  C        45.4927811347       27.6808539822       14.5605226984
  C        44.8056080547       28.6888646426       15.3071188272
  C        14.8553888866        8.5624286198       15.2641046946
  C        14.8737933995        8.5623299990       12.4514438916
  C        42.9464235573       31.9616466548        5.8089834061
  C        43.6916198508       30.8854390563        5.0954520486
  C        44.6562038133       31.1913408629        4.1231632397
  C        45.2776943836       30.1717506088        3.4053985550
  C        44.9538630362       28.8214517788        3.6430021212
  C        44.0203430246       28.5237796159        4.6537387992
  C        43.3921302475       29.5405585133        5.3659569868
  C        45.5628999796       27.7240296756        2.8577700708
  C        45.5331543138       27.7172734020        1.4364811229
  C        44.8268342494       28.7074884955        0.6835117508
  C        35.1144903948       26.6318987224        0.7270814398
  C        35.1270023050       26.6032201409        3.5371037998
  C        18.1484624222        3.2468766450        5.7065709777
  C        17.4298845483        4.3436713893        4.9971621322
  C        16.4144506837        4.0523824186        4.0738601144
  C        15.7660775264        5.0829914233        3.3984864211
  C        16.1209208719        6.4282266214        3.6209703026
  C        17.1126168713        6.7116406139        4.5778936382
  C        17.7603054799        5.6827320983        5.2576600579
  C        15.4902615121        7.5238754366        2.8485516744
  C        15.4957965353        7.5070842940        1.4274048271
  C        16.1924612584        6.5053167703        0.6806931659
  H        10.6723617669       12.4659235253        3.9044719224
  H        11.6944288821       10.5510457550        2.6626364327
  H        15.3914483417       11.1682524500        4.7722624687
  H        14.3511449980       13.0710071182        6.0175882206
  H        13.3755647962       11.6308122888        1.2011517563
  H        50.3225386918       22.7483098054        3.9867573854
  H        49.3193460966       24.6226483273        2.6805994440
  H        45.6421529103       24.1615491625        4.8640788438
  H        46.6631078887       22.2906764732        6.1724706790
  H        47.6296649874       23.5757869204        1.2461693518
  H        14.8722560727        8.5882711705        4.6084752398
  H        50.2868302161       22.7019498760       12.0608730909
  H        49.2689963773       24.5749405486       13.3608927577
  H        45.6110377638       24.1102235085       11.1451679742
  H        46.6530510813       22.2547961986        9.8308641033
  H        47.6077731839       23.5517686843       14.7968478945
  H        40.6379817665       17.0871863670       11.4080906955
  H        48.6872800424       14.0948808261        7.8000911681
  H        10.6808638592       12.4669437219       12.0933335028
  H        11.6886360682       10.5248319319       13.2971347636
  H        15.3924436960       11.1574130255       11.2049298635
  H        14.3644470528       13.0859661724        9.9895477657
  H        13.3748303345       11.6215679046       14.7530115036
  H        47.9302236203       14.2185173463        9.7107595057
  H        47.7801260276       14.3738888315        6.4955870897
  H        49.0836639284       18.5521888877       10.8672317247
  H        10.4162946018       14.1342750378        7.9988232487
  H        24.4721443017        3.0225526568        3.9087247965
  H        25.6012624700        4.8791240057        2.6666150438
  H        23.2039933139        7.7479560786        4.7928578318
  H        22.0950728979        5.8820748667        6.0385752554
  H        23.8070864980        5.7770232073        1.2183609440
  H        36.3785053881       32.1839046205        3.9619093407
  H        35.2575610888       30.3600386183        2.6794952968
  H        37.5314144355       27.4371130415        4.8678265746
  H        38.6318896946       29.2737528380        6.1596388574
  H        37.0187470933       29.4453837222        1.2533988623
  H        25.6738589069        8.6079394288        4.6220205943
  H        36.4422751197       32.2404969725       12.1010783129
  H        35.3180754409       30.4249910591       13.3873881181
  H        37.5044925445       27.4849045902       11.1327445075
  H        38.6033379942       29.3124366830        9.8332504395
  H        37.0229679345       29.4659782416       14.8052218571
  H        46.1097042301       26.5878108711       11.3855168961
  H        44.6682853778       35.1162553184        7.8141554662
  H        24.4586279566        3.0304374807       12.0562004071
  H        25.6095571172        4.8676461385       13.2953877288
  H        23.1997441832        7.7637151578       11.2220715389
  H        22.0611744289        5.9149391186        9.9815037514
  H        23.8144766197        5.7775699157       14.7687048205
  H        44.9537477899       34.3899854148        9.6947990371
  H        44.9020199370       34.2068630201        6.4908217800
  H        40.6652918746       33.2087258991       10.8529084902
  H        23.1500190477        1.9580642052        8.0026988181
  H        25.7554242163       19.6816917572        3.9754879096
  H        23.5969646658       19.7455920891        2.7260431775
  H        22.3053514932       16.1992821680        4.7884547001
  H        24.4707850323       16.1480933293        6.0371310006
  H        23.7091796190       17.7441385648        1.2399644936
  H        35.1485596817       15.3906684661        4.0009972778
  H        37.2749507168       15.3228536058        2.6911551727
  H        38.7130819966       18.7390225656        4.8751844500
  H        36.5868088415       18.7838802303        6.1903915150
  H        37.2230361472       17.2706381095        1.2426810792
  H        20.3144014703       17.9657077638        4.6393376096
  H        35.2146508860       15.3410416501       12.0236604059
  H        37.3446910951       15.2965983947       13.3201307056
  H        38.6920262638       18.7958390972       11.2125849976
  H        36.5543851764       18.8282323837        9.9155559029
  H        37.2319720169       17.2767384767       14.7934350948
  H        35.1123138589       26.6812577641       11.3840798897
  H        28.5042920652       21.1023300247        7.8884393830
  H        25.7744510721       19.6756447887       12.1191821531
  H        23.5850047912       19.7631980578       13.3197610692
  H        22.3223457466       16.2025528079       11.2647971487
  H        24.5121789634       16.1342410577       10.0594113763
  H        23.7071655261       17.7487982310       14.7918495766
  H        28.9661263716       21.7240844939        9.7133968067
  H        29.1761148334       21.7179437436        6.5198876597
  H        32.1934099100       18.6003045957       10.8128753506
  H        27.3647084115       19.1015761253        8.0912756929
  H        14.8601209828       19.6869888736       12.0920619088
  H        17.0319381546       19.7583495929       13.3197495051
  H        18.3169848411       16.2201436601       11.2397511820
  H        16.1418438004       16.1652618255       10.0101944775
  H        16.9225839602       17.7529108898       14.7919056012
  H        46.0879498648       15.4306866718       12.0530230240
  H        43.9601835907       15.3646108107       13.3555128397
  H        42.5476794948       18.8099873035       11.2016510439
  H        44.6756156010       18.8501867250        9.8879061044
  H        44.0185101688       17.3151210291       14.8171187816
  H        20.3159715782       17.9761891437       11.3930223847
  H        46.0637901464       15.3866783797        4.0286579320
  H        43.9377992026       15.3064631547        2.7260611201
  H        42.5103428972       18.7580190838        4.8590894866
  H        44.6438293811       18.8249461727        6.1622009505
  H        44.0096381051       17.2889391697        1.2669193318
  H        46.1991360534       26.6826923919        4.6232746474
  H        52.7412089165       21.0626481590        8.1946212511
  H        14.8576129516       19.6802518140        3.9035364478
  H        17.0476239286       19.7613375127        2.7020836138
  H        18.3116535869       16.2138525549        4.7788435863
  H        16.1241781997       16.1574064133        5.9914809724
  H        16.9245404380       17.7507696131        1.2402416548
  H        52.3223492222       21.6735527837        6.2946925629
  H        52.0131857527       21.7022358796        9.4954661704
  H        49.0678710027       18.6078733518        5.2039413135
  H        13.2475306089       19.0166220043        7.9752181045
  H        29.9727396009       12.4675910339       12.1999702713
  H        28.9247124744       10.5295621519       13.3838387841
  H        25.2812188566       11.1666565515       11.1894551352
  H        26.3485828779       13.0895594990        9.9986300053
  H        27.2150999623       11.6479509653       14.7815163024
  H        30.9755740891       22.7586170351       11.9887582597
  H        31.9721897789       24.6309486637       13.3004483548
  H        35.6661847432       24.1584999102       11.1477583818
  H        34.6520582576       22.2908930999        9.8321199668
  H        33.6371659896       23.5852725468       14.7551331493
  H        25.7582518727        8.5824023009       11.3796965861
  H        30.9377140844       22.7230729099        3.9684233811
  H        31.9546661587       24.5896708235        2.6603578392
  H        35.6273962397       24.1047617449        4.8474436951
  H        34.5939402639       22.2425413965        6.1551602895
  H        33.6284820279       23.5681213352        1.2039403514
  H        40.6072944352       17.0255736493        4.6481842536
  H        32.5062077995       14.1079931154        8.1786800061
  H        29.8584129325       12.4769138968        3.9835267036
  H        28.8435939589       10.5838434069        2.7110925331
  H        25.1266165304       11.1918762362        4.7873515979
  H        26.1585980252       13.0795319834        6.0639166163
  H        27.1772912138       11.6650005886        1.2295108062
  H        33.2390921175       14.1142176315        6.3261405488
  H        33.4137802246       14.3697034405        9.5226482790
  H        32.3292851773       18.6489244031        5.2406311280
  H        30.1841183547       14.1329473666        8.0805020520
  H        16.1177241736        2.9629136588       12.1289796122
  H        14.9521131336        4.8197454648       13.3217297730
  H        17.3659088475        7.6857471588       11.2108579711
  H        18.5150410556        5.8184923176       10.0110697780
  H        16.7525855309        5.7390738595       14.7713459605
  H        44.8278495203       32.1402858753       11.9771356432
  H        45.9372438908       30.3414759994       13.3066131321
  H        43.6830217678       27.3780784830       11.1520908746
  H        42.6001790839       29.1899712824        9.8094432660
  H        44.2303065174       29.4366484420       14.7687800844
  H        14.8501401636        8.5455900618       11.3632217839
  H        44.8997837408       32.2340242901        3.9317761616
  H        46.0246062096       30.4129968219        2.6521745217
  H        43.7633516226       27.4840473131        4.8452572196
  H        42.6456465212       29.3178164035        6.1244466316
  H        44.2683438932       29.4703867475        1.2180971209
  H        35.0952633724       26.6137962304        4.6249717187
  H        36.6052406342       35.1339006872        8.1806707609
  H        16.1432231158        3.0128156684        3.9043358505
  H        14.9735655423        4.8561481244        2.6886015929
  H        17.3963743535        7.7470910017        4.7545124229
  H        18.5433491429        5.8932186191        5.9822301918
  H        16.7640732219        5.7551896033        1.2191088912
  H        36.2786755749       34.4822093121        6.2732037941
  H        36.3812048366       34.2090324285        9.4997445667
  H        40.5808350536       33.2031077707        5.1533875336
  H        17.4706859843        1.9473099243        7.9741147648
  H        29.0117287131       18.5289471109       12.2936163603
  H        28.7407584042       19.0550415634        3.6782902420
  H        30.8924097601       15.2935681026        3.6953696133
  H        31.9274611000       16.5454496060       12.4781150520
  H        18.8533883233        0.8688432986       12.3352830847
  H        40.5282519999       35.2288601923        3.9520168410
  H        42.3243194124       34.4194006994        3.5898590541
  H        22.0872941627        0.6921302167       12.3518528851
  H        11.5961963942       18.7132997343       12.3831994835
  H        52.2646871619       18.4316085310        3.6773052593
  H        49.2553499566       16.4766412381        3.5842588839
  H        10.1508383882       15.7982856681       12.2925324413
  H        50.8499724387       17.6924990360        3.9539724898
  H        10.0462325215       17.3947022854       12.0519676975
  H        20.2146748476        0.0019760962       12.0419931537
  H        39.1838569555       36.1244359823        3.6863983315
 Ni        30.5600174837       17.5949147101        3.9943851256
  H        30.4441496876       17.7350218189       12.0100164024
  O        10.6499022936       14.3651324821        5.4858179290
  O        12.6131400283       14.6574877012        6.5838950524
  O        49.1478218166       16.8459473405        7.9897912104
  O        50.3501465935       20.9361655104        5.6481944219
  O        48.3485075193       20.5932661573        6.6659659528
  O        11.0515740209       17.0538395388        6.5007988920
  O        50.3209349862       20.8816717314       10.4068301021
  O        48.3466755331       20.5866816176        9.3271016221
  O        49.5440126710       18.2484255907       10.0682151474
  O        12.3592145024       18.6246625991        7.9997583417
  O        48.6933002303       14.1485019381        6.7513645344
  O         8.2099448363       14.2104116957        9.3225223720
  O        10.7353653142       14.5068045598       10.6643233442
  O        12.5718177725       14.5827982911        9.3285604416
  O        22.8440696283        2.0417869153        5.4874376404
  O        21.6048854304        3.5918435132        6.5895405063
  O        42.0581507108       34.1372859435        7.9791327569
  O        37.9818721814       33.1367615160        5.5719721565
  O        39.2183369852       31.5760758312        6.6662770346
  O        20.3083320700        1.0395797000        6.5020017671
  O        38.0240244553       33.1847662332       10.4154622166
  O        39.2184108362       31.5829656292        9.3271361363
  O        40.6522861120       33.7694173413       10.0602878890
  O        18.2554325753        1.3762440879        7.9967800933
  O        44.6222322044       35.1005334793        6.7588699872
  O        24.2055200944       -0.0001146758        9.3207655909
  O        22.7529940925        2.0563629986       10.5827328676
  O        21.6241664058        3.5952989831        9.3415652710
  O        27.4545046417       18.6932933212        5.4860527898
  O        26.6902892746       16.9184785571        6.6674045471
  O        30.6907770639       19.3548701193        7.9750330550
  O        33.5843007157       16.2571293131        5.6695313323
  O        34.2603187651       18.1781973294        6.6672665420
  O        29.5683402961       17.0606048824        6.5882590489
  O        33.5756364878       16.2672347243       10.4176671326
  O        34.2776849412       18.1721703371        9.4009400823
  O        31.7160039112       18.3228162941       10.0155852551
  O        30.2891608083       15.0981042001        8.0664773908
  O        28.5477276727       21.0358823295        6.8232356093
  O        28.5135847635       20.9533188314        9.3308895076
  O        27.5171592094       18.6293054879       10.6703194871
  O        26.6933293347       16.9265495925        9.4100225572
  O        13.1479988605       18.6936463236       10.5862805602
  O        13.9193541530       16.9162767189        9.4048429029
  O        50.5960516166       19.3502757750        8.0208224246
  O        47.6832975462       16.3270192195       10.4170401418
  O        46.9511659520       18.1758970733        9.3247336034
  O        11.0696275664       17.0156339640        9.4895127540
  O        47.6772429209       16.3355137950        5.6535047701
  O        46.9248843958       18.2355551275        6.6630008774
  O        49.5687251590       18.3177461580        5.9823143828
  O        10.3188564611       15.1001142403        7.9971415093
  O        52.6707177067       21.0279795471        9.2418195794
  O        12.1468297300       20.8913646216        6.6733375969
  O        13.1046368247       18.6144166264        5.3260992162
  O        13.9563866503       16.9870961878        6.6643845812
  O        30.0013560964       14.4349776741       10.6579747716
  O        28.0736755255       14.6603884546        9.4846772757
  O        32.0839500378       16.8588197688        7.9987358679
  O        30.9557077382       20.9444840877       10.3361524993
  O        32.9575524358       20.5934505837        9.3226187871
  O        29.5773088430       17.0769968499        9.5036713434
  O        30.8795188531       20.9499274934        5.6697079944
  O        32.9110555994       20.5043680383        6.5849761447
  O        31.5764109732       18.1901384285        5.6547692454
  O        28.2387057933       18.6799762489        8.0544017407
  O        32.4934069328       14.2091021012        9.2473238972
  O        32.3631751033       14.1387580790        6.7472193408
  O        29.8317190829       14.4339760107        5.4829937013
  O        27.9583622888       14.5839828241        6.7486960825
  O        17.8891941670        1.9665753206       10.6628106184
  O        18.9561299230        3.5271656428        9.4080408139
  O        39.1685239926       34.1387090799        7.9972509181
  O        43.2802035589       33.0588206679       10.3317459753
  O        42.0344392633       31.5063939636        9.2416312765
  O        20.3174360101        1.0364939984        9.4801290081
  O        43.2761286992       33.1825176436        5.5748980604
  O        42.0052697882       31.5841234441        6.5830190456
  O        40.5791074400       33.7751921518        5.9359407466
  O        22.3672013755        1.3844006486        7.9979851834
  O        36.6727812839       35.0997423996        9.2333207849
  O        16.4455793967        0.0641092881        6.6682428031
  O        17.9363728886        2.0432177664        5.3263972192
  O        18.9188740679        3.5931550748        6.6658395358
  O        29.6178529385       19.2079619064        4.0705332993
  O        29.8975158357       18.6892423455       11.9186800701
  O        31.4779113678       15.9718279034        4.0756973642
  O        31.1408570145       16.5538236278       11.9115615322
  O        39.4568549248       35.2437812304        4.0019787637
  O        19.1412120907        0.0043497153       11.9905211112
  O        41.9694272549       35.1726046700        4.0871072034
  O        21.6912569372       -0.0694272256       11.8961046154
  O        51.3647488567       18.6143652704        4.0052918129
  O        10.7507190261       18.7472994104       11.9050363964
  O        50.0796789371       16.4127391037        4.0916861693
  O         9.5247645090       16.4830320009       11.9911888131
 Zr         9.2974120006       16.0526034025        6.1824207553
 Zr        49.8369766850       16.0067634405        9.7464676997
 Zr        22.0734196001        0.0299824478        6.1891907742
 Zr        42.4610316573       35.1537955810        9.8012344710
 Zr        29.5365633127       19.0918329885        6.2330105334
 Zr        29.6029608762       19.1754310775        9.7497943026
 Zr        11.0382951853       19.0520053406        9.8279469501
 Zr        11.0438208423       19.1549390194        6.2511207434
 Zr        31.3368343414       16.0729739131        9.8245524349
 Zr        31.3603425972       15.9319754448        6.2531020717
 Zr        18.6013136514       -0.0012338525        9.7634639677
 Zr        18.5066395722       -0.0075842231        6.2136725488
 Zr        12.3023393578       16.3234117799        7.9906438557
 Zr        48.6168085837       18.8331187629        8.0100616021
 Zr        20.3150886355        2.4736316475        7.9906075135
 Zr        40.6434458551       32.6874167127        7.9784734038
 Zr        28.3141398168       16.3218173687        8.0576590698
 Zr        32.6583786367       18.8168245499        8.0379909336
  H        29.7311861799       17.1157056073        2.9145929104
