     562
 i =       66, E =     -4678.8695713237
  C        11.8587799748       14.0539582851        5.7407508196
  C        12.4555409155       12.8897361787        5.0237315973
  C        11.7040739796       12.1716739941        4.0812208257
  C        12.2802343406       11.1091158867        3.3891892920
  C        13.6207781734       10.7391503085        3.6169454192
  C        14.3538383685       11.4422838509        4.5908375230
  C        13.7812259286       12.5076039147        5.2820407163
  C        14.2602984076        9.6484394534        2.8436149894
  C        14.2552173974        9.6561521035        1.4219132894
  C        13.7420414060       10.7582297726        0.6679436081
  C        49.1265159513       21.2336406466        5.8799772971
  C        48.5496578732       22.4013251823        5.1526488733
  C        49.2996994691       23.0686198846        4.1716389839
  C        48.7326828731       24.1076365772        3.4383709729
  C        47.4021497760       24.5092923298        3.6670273280
  C        46.6712921084       23.8605574064        4.6807053283
  C        47.2337773276       22.8157309419        5.4101466108
  C        46.7720108216       25.5870222819        2.8697576950
  C        46.7607942305       25.5572014850        1.4480095922
  C        47.2609187131       24.4421970410        0.7045127646
  C        14.8595190673        8.5700603150        0.7085731400
  C        14.8911264568        8.5964771391        3.5202124796
  C        49.1128076790       21.2035000321       10.1452884812
  C        48.5274589870       22.3649044691       10.8723768376
  C        49.2665681598       23.0252853314       11.8656112112
  C        48.6902611251       24.0598514113       12.5970526511
  C        47.3598978984       24.4567317843       12.3586676593
  C        46.6396141217       23.8122008025       11.3348004771
  C        47.2131639350       22.7762846647       10.6030172255
  C        46.7213519520       25.5316737614       13.1496139546
  C        46.7333590482       25.5281324629       14.5713106856
  C        47.2484563450       24.4288013467       15.3277526125
  C        40.6177665159       17.0950749913       15.3167234207
  C        40.6353904626       17.1446027927       12.5058027489
  C        11.8834339537       14.0872926793       10.2867171632
  C        12.4710991495       12.9093370209       10.9888154493
  C        11.7139637074       12.1774386786       11.9162749069
  C        12.2801014876       11.0944502308       12.5842248392
  C        13.6188588784       10.7204542156       12.3523867554
  C        14.3566717049       11.4352129312       11.3908378321
  C        13.7917510349       12.5169579119       10.7186608565
  C        14.2521677607        9.6235081381       13.1227179494
  C        14.2512901299        9.6437501393       14.5445508696
  C        13.7411500027       10.7525376489       15.2916825987
  C        22.5062850672        3.2428739654        5.7486011825
  C        23.2081990975        4.3464897394        5.0359161766
  C        24.2061165510        4.0645537367        4.0915193100
  C        24.8257731510        5.1024883508        3.4009935576
  C        24.4627881639        6.4433760194        3.6358270453
  C        23.4898012671        6.7168884137        4.6142661728
  C        22.8664457694        5.6809553422        5.3041310296
  C        25.0695021992        7.5489145153        2.8615253737
  C        25.0635394309        7.5374211805        1.4404284681
  C        24.3724640510        6.5353205628        0.6885415774
  C        38.3009313140       31.9262549273        5.8481985622
  C        37.5695514058       30.8368648950        5.1364784507
  C        36.6069137818       31.1422803691        4.1616261160
  C        35.9841506406       30.1240218361        3.4442397142
  C        36.3078778490       28.7728091557        3.6782062683
  C        37.2411437093       28.4748603790        4.6895173022
  C        37.8679824022       29.4919858181        5.4060788376
  C        35.6971826424       27.6826430754        2.8815349131
  C        35.7252032277       27.6982177120        1.4593029887
  C        36.4295046401       28.7003572702        0.7203722519
  C        25.6942037276        8.6073519943        0.7273604643
  C        25.6516549815        8.6279001062        3.5377246222
  C        38.3234185582       31.9601410951       10.1534680254
  C        37.6015045452       30.8868265767       10.8976751773
  C        36.6670411697       31.1963989538       11.8981739629
  C        36.0509884266       30.1790435929       12.6250025172
  C        36.3504174348       28.8248401023       12.3733301286
  C        37.2604870557       28.5253938803       11.3405761171
  C        37.8785484013       29.5393159115       10.6145100787
  C        35.7363808621       27.7267943439       13.1571331369
  C        35.7434983332       27.7218022949       14.5799045718
  C        36.4385528909       28.7115182501       15.3434889328
  C        46.1349672644       26.6205526429       15.2814511966
  C        46.0875819968       26.5801532947       12.4735811536
  C        22.4652998519        3.2542024442       10.2523420366
  C        23.1721842906        4.3602832398       10.9644256008
  C        24.1833174973        4.0693301773       11.8938865967
  C        24.8217743001        5.0968859035       12.5833410655
  C        24.4680372914        6.4431983448       12.3656204783
  C        23.4819377423        6.7275472415       11.4025338578
  C        22.8392105526        5.7003458239       10.7128117677
  C        25.1007683402        7.5374769391       13.1421515999
  C        25.0794696860        7.5312739557       14.5640164790
  C        24.3779889516        6.5338794807       15.3121659975
  C        26.5558263908       17.8292684930        5.7948779566
  C        25.2580582068       17.8897422519        5.0721312624
  C        25.0152027872       18.8800405876        4.1051206133
  C        23.8112550644       18.9028685465        3.4109624453
  C        22.8006175394       17.9506704446        3.6762843495
  C        23.0364990167       16.9929995574        4.6862793236
  C        24.2494715000       16.9556255080        5.3647120762
  C        21.5451360459       17.9338083687        2.9159209934
  C        21.5546434184       17.9892288827        1.4579376286
  C        22.7389289887       17.8653496934        0.7228905411
  C        34.4197273188       17.2145340958        5.9138506386
  C        35.7147517782       17.1504688986        5.1761431723
  C        35.9059549740       16.1852462681        4.1751695002
  C        37.0878942179       16.1581318044        3.4399380469
  C        38.1105756375       17.0959580138        3.6839869870
  C        37.9201567261       18.0435148691        4.7084968489
  C        36.7368444956       18.0742848526        5.4431812054
  C        39.3633438129       17.1003569213        2.8931515908
  C        39.3590667698       17.1077563918        1.4704591079
  C        38.1517793485       17.2242762985        0.7115733054
  C        20.3099695356       18.0375857780        0.7479735983
  C        20.3198738628       17.8652649462        3.5864139960
  C        34.4495781378       17.1873664649       10.1776280047
  C        35.7492292578       17.1203250508       10.9045085489
  C        35.9894383165       16.1170645790       11.8559007466
  C        37.1756409105       16.1085423675       12.5842024582
  C        38.1541670300       17.1007135413       12.3792349625
  C        37.9259151745       18.0728439701       11.3870408242
  C        36.7355572235       18.0894063714       10.6644140676
  C        39.4049148884       17.1207809407       13.1716742940
  C        39.3805294974       17.1182810920       14.5931056139
  C        38.1615624650       17.2241155538       15.3345044049
  C        35.1120954495       26.6430840482       15.2845909099
  C        35.1442616422       26.6560777172       12.4750260464
  C        26.5598013856       17.8217740367       10.3259938064
  C        25.2403024146       17.8890788103       11.0068381906
  C        24.9773949094       18.8965552484       11.9501685519
  C        23.7630267583       18.9220682778       12.6241810903
  C        22.7728609072       17.9465477887       12.3709353817
  C        23.0292618570       16.9699102042       11.3861187131
  C        24.2524190262       16.9314565587       10.7257825598
  C        21.5184833818       17.9246882752       13.1312872112
  C        21.5409059496       17.9839006773       14.5875519964
  C        22.7321010450       17.8633366963       15.3127263509
  C        14.0454046528       17.8355154991       10.2791413926
  C        15.3510432380       17.9032910154       10.9888486491
  C        15.5986214138       18.8948796401       11.9528458388
  C        16.8050199156       18.9156439891       12.6432669346
  C        17.8111679022       17.9582832833       12.3786844625
  C        17.5721951792       17.0029800872       11.3672085939
  C        16.3579176375       16.9688502599       10.6915488848
  C        19.0670447116       17.9330838933       13.1371533460
  C        19.0583743663       17.9915010159       14.5944289576
  C        17.8739928212       17.8769593019       15.3305768070
  C        46.8033449162       17.2194909578       10.1600150131
  C        45.5118482070       17.1570134558       10.9049721798
  C        45.3037528018       16.1771213696       11.8880981840
  C        44.1205796830       16.1569540613       12.6222612036
  C        43.1152850536       17.1181076372       12.3976412048
  C        43.3206713283       18.0777830839       11.3877721354
  C        44.5044621301       18.1013778732       10.6541198425
  C        41.8600163301       17.1248107566       13.1846596426
  C        41.8643285694       17.1157018369       14.6070911905
  C        43.0724468892       17.2079171267       15.3676217457
  C        20.3026070329       18.0341517460       15.3054482202
  C        20.2917987333       17.8479941768       12.4676022457
  C        46.7830970829       17.2317639883        5.8869960114
  C        45.4778944976       17.1222384340        5.1727462284
  C        45.2592232015       16.1215767133        4.2134327116
  C        44.0700069259       16.0904563856        3.4884948939
  C        43.0682324877       17.0571118846        3.7040069121
  C        43.2777770367       18.0279346361        4.7015850510
  C        44.4682002003       18.0656059120        5.4217238416
  C        41.8198199798       17.0748932505        2.9076253774
  C        41.8439908730       17.0876804620        1.4861537513
  C        43.0626134133       17.1933713941        0.7444220761
  C        46.1531987804       26.6372653558        0.7261936307
  C        46.1619386175       26.6560769045        3.5358638685
  C        14.0403636446       17.8316407884        5.7108697617
  C        15.3550239100       17.9049241450        5.0193516920
  C        15.6137744847       18.9050650199        4.0684696339
  C        16.8345367742       18.9380675447        3.4050566960
  C        17.8358610903       17.9787135731        3.6783863570
  C        17.5851093316       17.0150705016        4.6773997562
  C        16.3595569313       16.9735691267        5.3316077048
  C        19.0927544700       17.9506676405        2.9230379477
  C        19.0715493514       17.9991932728        1.4661962665
  C        17.8807755540       17.8798689753        0.7403208334
  C        28.8102588719       14.0809363027       10.3602821776
  C        28.2130987113       12.9030029117       11.0473797841
  C        28.9417850155       12.1785095201       12.0021749010
  C        28.3513199348       11.1039086061       12.6627538348
  C        27.0213349398       10.7269608656       12.3870920566
  C        26.3154555538       11.4318470613       11.3955381350
  C        26.9032201549       12.5061410220       10.7345920532
  C        26.3542565008        9.6482763186       13.1505390409
  C        26.3285773391        9.6759589868       14.5711387433
  C        26.8237420162       10.7904228714       15.3197973721
  C        32.1752038831       21.2361980558       10.1098634095
  C        32.7593516918       22.4005585699       10.8375857573
  C        32.0122115968       23.0564577947       11.8286803417
  C        32.5755570111       24.0963111542       12.5632906382
  C        33.9029391178       24.5078774454       12.3318115054
  C        34.6325086891       23.8678849868       11.3112480572
  C        34.0723824632       22.8229693001       10.5788454509
  C        34.5273310893       25.5860562046       13.1342367714
  C        34.5185311009       25.5593064079       14.5567665444
  C        34.0142973044       24.4432094669       15.2963896521
  C        25.7095864702        8.5989024322       15.2834660759
  C        25.7239782881        8.5973897335       12.4714058132
  C        32.0757515671       21.1971199484        5.8513843152
  C        32.6618666419       22.3561217594        5.1129876319
  C        31.9345227149       23.0076622114        4.1046467127
  C        32.5132290651       24.0460498123        3.3777151705
  C        33.8309972862       24.4698511960        3.6424551592
  C        34.5377946129       23.8342451946        4.6818548837
  C        33.9632272571       22.7936900266        5.4074620263
  C        34.4753796618       25.5500329471        2.8581363229
  C        34.4934171811       25.5406884248        1.4352393895
  C        34.0010600845       24.4346714351        0.6732421797
  C        40.6065152407       17.0874132069        0.7620713632
  C        40.5881256454       17.0975080304        3.5717892220
  C        28.6618623464       14.0602901828        5.8208265313
  C        28.0577117350       12.9162331072        5.0797921613
  C        28.8113169167       12.2082590380        4.1309746982
  C        28.2392116809       11.1534818414        3.4256385040
  C        26.8984231970       10.7811983203        3.6455333295
  C        26.1614310635       11.4746287421        4.6235952295
  C        26.7313663932       12.5318091284        5.3297468761
  C        26.2706927960        9.6889617144        2.8662100636
  C        26.2865814570        9.6974551755        1.4449783498
  C        26.8007673879       10.8019295517        0.6955566455
  C        18.1350332759        3.1806129919       10.3167754743
  C        17.4058952234        4.2778124647       11.0157927173
  C        16.3898031473        3.9993422064       11.9428410246
  C        15.7418154015        5.0391014585       12.6064433374
  C        16.0935932980        6.3828694024       12.3669919790
  C        17.0831681819        6.6526401814       11.4035244638
  C        17.7324575343        5.6154279721       10.7384477856
  C        15.4689480257        7.4903455607       13.1301048342
  C        15.4845256801        7.4898951669       14.5518195316
  C        16.1860594025        6.4962403068       15.3049562754
  C        42.9458731665       31.8594659103       10.0725731884
  C        43.6458724853       30.7717472276       10.8168043728
  C        44.5915830284       31.0930579497       11.8026879243
  C        45.1972546665       30.0875677984       12.5504461747
  C        44.8708058494       28.7345163354       12.3356508627
  C        43.9448766066       28.4201347904       11.3225603167
  C        43.3361137071       29.4252581595       10.5744514823
  C        45.4881619579       27.6551326676       13.1388796811
  C        45.4926710251       27.6809530831       14.5605651656
  C        44.8053285366       28.6888594818       15.3071499981
  C        14.8551409211        8.5621786752       15.2641380217
  C        14.8735884091        8.5620417496       12.4515065105
  C        42.9470218486       31.9616560041        5.8098699907
  C        43.6910015681       30.8855274640        5.0950944597
  C        44.6563540724       31.1912845727        4.1235297442
  C        45.2775792286       30.1717242191        3.4055203139
  C        44.9537688542       28.8214229923        3.6430813486
  C        44.0199481028       28.5238366399        4.6535475534
  C        43.3920097644       29.5406186339        5.3659885165
  C        45.5628143240       27.7241089119        2.8577393693
  C        45.5328842032       27.7172395095        1.4364545210
  C        44.8267585410       28.7076342588        0.6835362670
  C        35.0998542264       26.6333209779        0.7305773112
  C        35.0895097171       26.6078657564        3.5413594892
  C        18.1480282899        3.2466509061        5.7070911790
  C        17.4301483777        4.3435224195        4.9969234533
  C        16.4143845470        4.0521761167        4.0740113734
  C        15.7661336264        5.0827437435        3.3984415045
  C        16.1206871699        6.4280127151        3.6210304650
  C        17.1123886123        6.7114341020        4.5779260135
  C        17.7599895161        5.6826195614        5.2579170603
  C        15.4901974416        7.5237164010        2.8485734530
  C        15.4955925192        7.5068388215        1.4274277334
  C        16.1925976720        6.5052665415        0.6807712265
  H        10.6719148570       12.4658516017        3.9043691567
  H        11.6939209836       10.5508608156        2.6624901895
  H        15.3907658103       11.1673957051        4.7727342583
  H        14.3504580974       13.0704902092        6.0179182434
  H        13.3747816392       11.6302512739        1.2012434552
  H        50.3223737740       22.7484863662        3.9868973077
  H        49.3190783310       24.6228468438        2.6806894497
  H        45.6418269651       24.1613917945        4.8639342628
  H        46.6627882084       22.2905379959        6.1723024951
  H        47.6292815984       23.5757542676        1.2462130358
  H        14.8716509302        8.5877921540        4.6085243314
  H        50.2865426256       22.7022585690       12.0606051249
  H        49.2685127992       24.5751608351       13.3607619399
  H        45.6102975267       24.1096208317       11.1455105841
  H        46.6524856329       22.2543515809        9.8311816245
  H        47.6072304124       23.5516747215       14.7968703469
  H        40.6412519314       17.1230494870       11.4176849015
  H        48.6869823657       14.0951590511        7.8000158385
  H        10.6805140909       12.4667614026       12.0934224006
  H        11.6882270682       10.5245589549       13.2972554603
  H        15.3919743407       11.1568805195       11.2048329305
  H        14.3639817033       13.0857612916        9.9896089678
  H        13.3741161466       11.6210274724       14.7529913451
  H        47.9300252521       14.2182964921        9.7109548325
  H        47.7799729599       14.3740629326        6.4952447320
  H        49.0824884445       18.5523336618       10.8671584702
  H        10.4152849125       14.1340720945        7.9988617534
  H        24.4739393756        3.0260756504        3.9100087900
  H        25.6019694400        4.8851113141        2.6704917506
  H        23.2019868548        7.7495777298        4.7999138016
  H        22.0946244619        5.8811157247        6.0432584073
  H        23.8066192183        5.7785276035        1.2240388048
  H        36.3709510647       32.1860328200        3.9679329268
  H        35.2378422940       30.3672362169        2.6910876435
  H        37.5003212161       27.4352007618        4.8789432095
  H        38.6132707296       29.2669205001        6.1654077884
  H        36.9963771177       29.4496163769        1.2652697237
  H        25.6703637875        8.6146939636        4.6259449306
  H        36.4473768904       32.2409632685       12.1072582856
  H        35.3231444285       30.4268460450       13.3944805722
  H        37.5051262059       27.4847766459       11.1379065540
  H        38.6036814755       29.3108560263        9.8371305536
  H        37.0125364562       29.4692047103       14.8178920034
  H        46.1089232304       26.5875079077       11.3855423293
  H        44.6682030797       35.1161367579        7.8141086918
  H        24.4576085499        3.0297393714       12.0579976500
  H        25.6079246662        4.8659351843       13.2990144084
  H        23.1991353927        7.7633562023       11.2263614825
  H        22.0610305549        5.9154626224        9.9841683167
  H        23.8149365583        5.7766908255       14.7744278126
  H        44.9536095676       34.3898110208        9.6947260995
  H        44.9018267668       34.2068676838        6.4907485818
  H        40.6652754623       33.2082187076       10.8528299390
  H        23.1501678325        1.9576848780        8.0030888926
  H        25.7815813427       19.6277228210        3.9141968879
  H        23.6289244474       19.6740800443        2.6660150415
  H        22.2726649852       16.2468678708        4.8946137330
  H        24.4494708471       16.1957771418        6.1165023164
  H        23.6813163112       17.7279689581        1.2444969821
  H        35.1090647352       15.4713538108        3.9797932714
  H        37.2343588018       15.3999310482        2.6738646921
  H        38.7001392215       18.7773426883        4.9011075633
  H        36.5758439097       18.8206443261        6.2177403988
  H        37.2109388507       17.3438485694        1.2412340678
  H        20.3210250944       17.8448510758        4.6749761134
  H        35.2320242607       15.3545937297       12.0216471644
  H        37.3557875648       15.3322850311       13.3247329729
  H        38.6747655176       18.8446491023       11.2207257074
  H        36.5348774332       18.8606359142        9.9242436480
  H        37.2278363644       17.3424671030       14.7919536929
  H        35.1186049786       26.6815242854       11.3872218301
  H        28.5070826071       21.0992440548        7.8877395327
  H        25.7339389371       19.6570207322       12.1289182192
  H        23.5590772789       19.7063739469       13.3498157098
  H        22.2769758554       16.2091141812       11.1890868052
  H        24.4718732599       16.1583404006        9.9931838086
  H        23.6698869317       17.7263410060       14.7828946283
  H        28.9498799033       21.7351668730        9.7169000783
  H        29.1744392330       21.7160608429        6.5176721185
  H        32.2177642532       18.6585576074       10.8672207983
  H        27.3506879125       19.0688386132        8.0745539538
  H        14.8307526263       19.6405538898       12.1461220718
  H        16.9921312791       19.6868805205       13.3871246755
  H        18.3336414571       16.2546151798       11.1580563191
  H        16.1543888731       16.2093205326        9.9405875826
  H        16.9313527888       17.7428947056       14.8088347126
  H        46.0858776062       15.4437763201       12.0699958123
  H        43.9609547302       15.3886934045       13.3756271764
  H        42.5539574168       18.8287902023       11.2089319114
  H        44.6783982598       18.8572113437        9.8917856399
  H        44.0142834941       17.3246968476       14.8391854778
  H        20.2890659750       17.8229777302       11.3791343299
  H        46.0369428725       15.3819091130        4.0372936792
  H        43.9049522139       15.3129302700        2.7457698268
  H        42.5105478438       18.7794412188        4.8760242656
  H        44.6490552996       18.8348429317        6.1685717766
  H        43.9972542888       17.2970858569        1.2879681042
  H        46.1988414643       26.6826614939        4.6233071444
  H        52.7411866314       21.0626036942        8.1946298286
  H        14.8456617823       19.6487542415        3.8683839182
  H        17.0345403222       19.7153280645        2.6708831432
  H        18.3444935466       16.2658755875        4.8909012554
  H        16.1445238932       16.2100686672        6.0751676123
  H        16.9427404657       17.7478354197        1.2704691024
  H        52.3218987854       21.6737345085        6.2949506212
  H        52.0130411806       21.7025323228        9.4950844549
  H        49.0666811426       18.6077139026        5.2042821364
  H        13.2466784233       19.0162576984        7.9763826280
  H        29.9636999056       12.4817204119       12.2197046483
  H        28.9166257625       10.5425701520       13.4034961469
  H        25.2875924907       11.1499983008       11.1769174283
  H        26.3553324442       13.0722791425        9.9855457213
  H        27.1944465099       11.6584005690       14.7826895888
  H        30.9940519192       22.7254650485       12.0198071392
  H        31.9893951239       24.6032133304       13.3267246589
  H        35.6601264073       24.1737158898       11.1255648048
  H        34.6437315627       22.3060365375        9.8113445443
  H        33.6623039336       23.5713174137       14.7523508259
  H        25.7613812358        8.5782357192       11.3836534086
  H        30.9234271272       22.6713655425        3.8865319033
  H        31.9422211125       24.5488271448        2.6002184464
  H        35.5581227971       24.1464468247        4.8948080990
  H        34.5174583983       22.2824353999        6.1909440063
  H        33.6395164486       23.5561077259        1.1999415376
  H        40.5828119758       17.0627891895        4.6596148641
  H        32.5153102363       14.1392154875        8.1729889865
  H        29.8484839890       12.4913581964        3.9675368427
  H        28.8292134365       10.5998183774        2.6985187417
  H        25.1241842360       11.1971575898        4.7995760515
  H        26.1612099955       13.0849947149        6.0723030921
  H        27.1533215363       11.6788644330        1.2307160532
  H        33.2938641663       14.2380249289        6.3577227677
  H        33.4109477812       14.3743763015        9.5281362161
  H        32.1180948942       18.5335700934        5.1416951583
  H        30.1892190026       14.1410162568        8.0743881660
  H        16.1178906994        2.9627834901       12.1291139971
  H        14.9522286431        4.8195156244       13.3218958038
  H        17.3654919378        7.6855939043       11.2106840391
  H        18.5146989854        5.8182986107       10.0108910685
  H        16.7526335083        5.7389450902       14.7714031358
  H        44.8279261281       32.1401191211       11.9768909167
  H        45.9371742625       30.3412343879       13.3063643338
  H        43.6820569501       27.3780877010       11.1524955251
  H        42.5993748791       29.1899785214        9.8098902356
  H        44.2300697339       29.4366861018       14.7688210039
  H        14.8497187999        8.5451944246       11.3632940337
  H        44.8998587136       32.2339501795        3.9320102001
  H        46.0246589857       30.4129181163        2.6524489902
  H        43.7629032220       27.4840974581        4.8449452601
  H        42.6451563017       29.3177712558        6.1240685928
  H        44.2682021110       29.4704845492        1.2181282840
  H        35.0482054979       26.6213900213        4.6289175058
  H        36.6052264651       35.1338035174        8.1808120444
  H        16.1433890006        3.0125820932        3.9042335134
  H        14.9736028793        4.8558918405        2.6885869148
  H        17.3958968477        7.7469124944        4.7547384481
  H        18.5431192794        5.8930743893        5.9823992621
  H        16.7640570301        5.7550271041        1.2191888934
  H        36.2787280116       34.4819449823        6.2732476057
  H        36.3808348379       34.2091053118        9.4999045135
  H        40.5798132765       33.2022470118        5.1538273007
  H        17.4708774760        1.9468616641        7.9740326137
  H        28.6620105942       18.8925125357       12.2358331669
  H        28.6574689257       18.9247094979        3.8303937033
  H        30.8099605461       15.2849064818        3.8057418403
  H        32.4320794643       16.0913115226       12.3240478304
  H        18.8536582454        0.8689132496       12.3351584188
  H        40.5283393092       35.2289269670        3.9521560421
  H        42.3236200095       34.4188785536        3.5904142603
  H        22.0874047481        0.6921845198       12.3516379668
  H        11.5973341220       18.7109677567       12.3809711410
  H        52.2655454334       18.4293512535        3.6805770180
  H        49.2548961847       16.4765221751        3.5844539309
  H        10.1507844489       15.7983495055       12.2918121917
  H        50.8493318758       17.6927786322        3.9541729969
  H        10.0459583442       17.3948622428       12.0517756772
  H        20.2150260646        0.0020731639       12.0419664656
  H        39.1835830499       36.1243310532        3.6865372580
 Ni        30.3144121093       17.4630297990        3.0012391165
 Ni        31.5135829982       18.1244931325       14.8953934259
 Ni        30.5266865865       17.3125041836        0.7427097501
 Ni        30.8583660616       17.8571190069       12.7451959678
  O        10.6495402280       14.3649502731        5.4862278091
  O        12.6122821761       14.6569236426        6.5845775026
  O        49.1474151711       16.8456042102        7.9897385222
  O        50.3498965462       20.9362001208        5.6481308473
  O        48.3483055215       20.5931427885        6.6658294446
  O        11.0503097004       17.0538258435        6.5007542436
  O        50.3205603470       20.8815574327       10.4068377844
  O        48.3467519280       20.5863539475        9.3270404968
  O        49.5435067860       18.2492995572       10.0682974703
  O        12.3579626318       18.6251824899        7.9995606048
  O        48.6931149473       14.1486435872        6.7512794080
  O         8.2096883596       14.2105034162        9.3225632012
  O        10.7346785007       14.5061822261       10.6635855143
  O        12.5708934176       14.5820913524        9.3279779606
  O        22.8435703581        2.0419250175        5.4877853080
  O        21.6043836962        3.5910188607        6.5898540647
  O        42.0579984791       34.1375511278        7.9791801155
  O        37.9818335857       33.1350807292        5.5716582396
  O        39.2182331642       31.5757102994        6.6654141675
  O        20.3087466958        1.0395612786        6.5018228667
  O        38.0259749943       33.1846937854       10.4174939845
  O        39.2204076023       31.5835742152        9.3296520654
  O        40.6502166909       33.7687905600       10.0601653952
  O        18.2555770559        1.3757400185        7.9965237093
  O        44.6223923192       35.1006646818        6.7588111971
  O        24.2056650564       -0.0000549099        9.3208147822
  O        22.7531294775        2.0563607145       10.5827380630
  O        21.6245422102        3.5954853057        9.3418455559
  O        27.4540446652       18.6960711396        5.4871465084
  O        26.6935658183       16.9176603929        6.6732375991
  O        30.6347469254       19.3488476339        8.0100409285
  O        33.5440377253       16.3261492584        5.6602741083
  O        34.2667634736       18.1808901909        6.7429693241
  O        29.5302906104       17.0230302946        6.5781240799
  O        33.5838189452       16.2696418917       10.4115487715
  O        34.2628209109       18.1799247224        9.4025211054
  O        31.6512095081       18.3099593160       10.1560564886
  O        30.2899397153       15.1066680964        8.0710088209
  O        28.5500011872       21.0318374259        6.8210664228
  O        28.5083415195       20.9616345089        9.3274625737
  O        27.4499163346       18.6789621824       10.6563047757
  O        26.6881344832       16.9328875036        9.4113744542
  O        13.1441293988       18.6935676174       10.5871548883
  O        13.9163874253       16.9147503624        9.4034605982
  O        50.5956075982       19.3504452729        8.0206295390
  O        47.6811281622       16.3269720086       10.4176001484
  O        46.9502576460       18.1755725329        9.3246619150
  O        11.0680981366       17.0158349139        9.4895956574
  O        47.6735529874       16.3353408836        5.6526194099
  O        46.9244052770       18.2355442866        6.6638056254
  O        49.5686443336       18.3184848378        5.9822649786
  O        10.3193408318       15.1000727267        7.9969144214
  O        52.6702885106       21.0279242007        9.2417740412
  O        12.1466717803       20.8916646494        6.6734171637
  O        13.1036871784       18.6134107573        5.3248225233
  O        13.9538509474       16.9851164989        6.6662412817
  O        29.9993775545       14.4312683803       10.6663298976
  O        28.0714314177       14.6573497086        9.4888977368
  O        32.0730225991       16.8567055489        8.0717241205
  O        30.9536961404       20.9505685464       10.3341700321
  O        32.9548563009       20.5855052261        9.3258418375
  O        29.5696438168       17.0753427956        9.5784731039
  O        30.8602064507       20.8771739137        5.5913407294
  O        32.8609463557       20.5800436196        6.6541212203
  O        31.6109002637       18.2354373417        5.9131819794
  O        28.2355848249       18.6692792134        8.0667000861
  O        32.4922979885       14.2113317120        9.2469096015
  O        32.4025573719       14.2012687660        6.7442755026
  O        29.8382426029       14.4295023746        5.4941390920
  O        27.9593384338       14.5862548733        6.7531667452
  O        17.8892189302        1.9665143574       10.6633090643
  O        18.9562491177        3.5274737514        9.4082811065
  O        39.1686784835       34.1380211654        7.9974613138
  O        43.2803129075       33.0587163903       10.3319543290
  O        42.0342142769       31.5062909016        9.2417508229
  O        20.3176886220        1.0359700049        9.4802902756
  O        43.2758795625       33.1825034761        5.5740779887
  O        42.0049201291       31.5834455049        6.5823691379
  O        40.5784711297       33.7749783579        5.9359169863
  O        22.3667728218        1.3848189535        7.9970253760
  O        36.6729354649       35.0996344358        9.2333856219
  O        16.4455219734        0.0640127056        6.6681572497
  O        17.9365267760        2.0433069751        5.3258074660
  O        18.9193651902        3.5931946919        6.6655211524
  O        29.6081330268       18.9170795970        4.0573624941
  O        29.5958861919       19.0565332705       11.9948497862
  O        31.2370366314       16.1209406196        4.0722727205
  O        31.5012246644       16.1916046202       12.0624025093
  O        39.4569029156       35.2436882222        4.0018826747
  O        19.1415117654        0.0043420676       11.9906383194
  O        41.9695724963       35.1728059764        4.0872029452
  O        21.6912665032       -0.0694140989       11.8960635714
  O        51.3647964718       18.6142850408        4.0051690911
  O        10.7506346423       18.7471449256       11.9051742682
  O        50.0794282432       16.4126217196        4.0915721826
  O         9.5243420764       16.4831388734       11.9913403799
 Zr         9.2963551012       16.0531794463        6.1821103495
 Zr        49.8358163697       16.0071547579        9.7467732787
 Zr        22.0733078873        0.0289956133        6.1892145676
 Zr        42.4608773110       35.1530561732        9.8010595719
 Zr        29.5566492192       19.0684906116        6.2563051305
 Zr        29.5564692503       19.1971423256        9.8135508569
 Zr        11.0381807032       19.0522185392        9.8277515229
 Zr        11.0438671874       19.1549956670        6.2513990122
 Zr        31.3371343843       16.0589656184        9.8517079458
 Zr        31.3490878017       15.9871981500        6.2653741497
 Zr        18.6008286213       -0.0011335129        9.7634013259
 Zr        18.5064786233       -0.0080993850        6.2137702479
 Zr        12.3010488625       16.3239895866        7.9910211015
 Zr        48.6160770864       18.8328130759        8.0099241258
 Zr        20.3143283854        2.4729589241        7.9910873105
 Zr        40.6436231348       32.6866095644        7.9780482074
 Zr        28.3195424391       16.3229257807        8.0847381200
 Zr        32.6070906564       18.8284741277        8.0268224184
  H        29.6160105107       16.5198502531        1.9247289982
  H        32.0849965441       18.7251318679       13.3636984572
