     562
 i =      195, E =     -4678.9487028073
  C        11.8585428332       14.0533928611        5.7415294922
  C        12.4558855195       12.8903922567        5.0232799000
  C        11.7042587212       12.1717765313        4.0813193344
  C        12.2805187899       11.1094828320        3.3890177534
  C        13.6209538962       10.7392748167        3.6169908688
  C        14.3540064865       11.4424870786        4.5908245589
  C        13.7812286763       12.5075227493        5.2823266353
  C        14.2603868006        9.6485832254        2.8435590811
  C        14.2555169371        9.6564304525        1.4218530227
  C        13.7423246771       10.7585162012        0.6679143238
  C        49.1265790422       21.2334465362        5.8797305640
  C        48.5497430776       22.4012731747        5.1527226212
  C        49.2997240035       23.0684878555        4.1715965190
  C        48.7327630060       24.1075518623        3.4383477471
  C        47.4022430125       24.5092556225        3.6670327412
  C        46.6713743514       23.8605460456        4.6807251455
  C        47.2338432741       22.8156918972        5.4101248394
  C        46.7720056931       25.5869002602        2.8697259405
  C        46.7610250192       25.5572307298        1.4479713657
  C        47.2609916001       24.4421491048        0.7044860660
  C        14.8593114991        8.5700198220        0.7085744732
  C        14.8912708646        8.5966675082        3.5201891648
  C        49.1128870742       21.2034702312       10.1453162111
  C        48.5275067478       22.3647958987       10.8723613926
  C        49.2666271103       23.0252798759       11.8655234063
  C        48.6902813310       24.0597777178       12.5970165856
  C        47.3599757412       24.4568001577       12.3585563904
  C        46.6397206731       23.8121751972       11.3347305317
  C        47.2132834025       22.7763297270       10.6028845108
  C        46.7215017609       25.5316909264       13.1496225858
  C        46.7332474601       25.5280146778       14.5713224955
  C        47.2487036494       24.4288257213       15.3277260541
  C        40.6187430680       17.0908728480       15.3174631752
  C        40.6375491784       17.1403843998       12.5069440560
  C        11.8827859415       14.0862845726       10.2854450294
  C        12.4717339308       12.9102634416       10.9894919292
  C        11.7142101062       12.1776314579       11.9160621121
  C        12.2805015407       11.0950417569       12.5844833870
  C        13.6190556287       10.7205654342       12.3522566848
  C        14.3569442978       11.4354572690       11.3908636311
  C        13.7918119345       12.5167532170       10.7181429287
  C        14.2524892187        9.6237883148       13.1227342158
  C        14.2513100727        9.6438782691       14.5445780192
  C        13.7416013015       10.7528933921       15.2916613852
  C        22.5055938452        3.2427845799        5.7483073751
  C        23.2071519880        4.3465246075        5.0357014113
  C        24.2056838361        4.0651867393        4.0918087035
  C        24.8248337211        5.1034400409        3.4013467603
  C        24.4594690262        6.4439342096        3.6345831017
  C        23.4856339356        6.7169562433        4.6122417961
  C        22.8628944941        5.6807001513        5.3020791747
  C        25.0660695113        7.5495653057        2.8605548875
  C        25.0609279939        7.5378289132        1.4395214771
  C        24.3716181105        6.5345506480        0.6875072579
  C        38.3009220367       31.9267140014        5.8480466054
  C        37.5674073107       30.8375103397        5.1384508377
  C        36.6031547445       31.1436171829        4.1654252521
  C        35.9789076979       30.1258859147        3.4486831187
  C        36.3028774354       28.7745665973        3.6813389733
  C        37.2383133259       28.4759025325        4.6903989205
  C        37.8664275551       29.4925095818        5.4065590216
  C        35.6926195082       27.6850351875        2.8835710395
  C        35.7202975087       27.7013436695        1.4613597277
  C        36.4244196059       28.7042937921        0.7233046490
  C        25.6926813244        8.6070996251        0.7264132036
  C        25.6462156521        8.6294853214        3.5369726384
  C        38.3262743342       31.9606789889       10.1563913922
  C        37.5990954634       30.8882011223       10.8965269226
  C        36.6668058963       31.1990345218       11.8986819175
  C        36.0490646213       30.1827444054       12.6255653273
  C        36.3483144715       28.8282265632       12.3755274873
  C        37.2585345538       28.5274700473       11.3432915075
  C        37.8782111220       29.5403628535       10.6172523351
  C        35.7339188594       27.7307060616       13.1596649074
  C        35.7409047931       27.7248745103       14.5824031564
  C        36.4334758840       28.7160675753       15.3464187831
  C        46.1352303102       26.6206452643       15.2814529008
  C        46.0875278553       26.5800395489       12.4735693846
  C        22.4654942812        3.2540328433       10.2519480621
  C        23.1724602261        4.3600316659       10.9638469413
  C        24.1841284524        4.0689798115       11.8926852331
  C        24.8227942093        5.0964360636       12.5820369673
  C        24.4687102065        6.4426765597       12.3646274355
  C        23.4819110812        6.7272150869       11.4023400500
  C        22.8390539320        5.7000604970       10.7127231554
  C        25.1008321063        7.5368669250       13.1416351128
  C        25.0793229334        7.5306117756       14.5634537881
  C        24.3775224046        6.5330594049       15.3111577952
  C        26.5569933124       17.8238508551        5.7881767682
  C        25.2587862877       17.8824564315        5.0581895326
  C        25.0026419053       18.9011037717        4.1272771201
  C        23.7954424214       18.9308496746        3.4335960529
  C        22.8121198047       17.9455757181        3.6513581300
  C        23.0636419440       16.9492727115        4.6129603317
  C        24.2723074330       16.9143415830        5.3047237192
  C        21.5461136507       17.9419622043        2.8801157246
  C        21.5548462154       17.9417435483        1.4583531326
  C        22.7654922231       17.8369968942        0.7030656579
  C        34.4195562349       17.2167295973        5.9152263536
  C        35.7137203925       17.1502990050        5.1756165735
  C        35.9048199297       16.1836399063        4.1758393745
  C        37.0873623287       16.1555908795        3.4413068473
  C        38.1095267171       17.0947497305        3.6825117079
  C        37.9195844638       18.0417035787        4.7075810636
  C        36.7360838603       18.0737438563        5.4418599566
  C        39.3637765454       17.0953229820        2.8938852715
  C        39.3597872400       17.1039904828        1.4712017465
  C        38.1528109975       17.2188205307        0.7116700827
  C        20.3109859417       17.9619914573        0.7464395177
  C        20.3206305734       17.9317968678        3.5587535559
  C        34.4502923324       17.1882011941       10.1785530529
  C        35.7533628570       17.1176218998       10.9001040768
  C        35.9931146066       16.1137506034       11.8513831663
  C        37.1783455806       16.1053395606       12.5818660679
  C        38.1579752938       17.0960725683       12.3762895990
  C        37.9273635105       18.0739875159       11.3905817266
  C        36.7378818573       18.0905155753       10.6665703164
  C        39.4066326944       17.1166497833       13.1718928099
  C        39.3819387004       17.1137006146       14.5932010344
  C        38.1631398834       17.2196885870       15.3346429477
  C        35.1096786031       26.6456740213       15.2865755072
  C        35.1433874245       26.6594542296       12.4769671082
  C        26.5619587158       17.8276842955       10.3246945478
  C        25.2481622636       17.8830308855       11.0251475124
  C        24.9685109854       18.9201180825       11.9278257151
  C        23.7508922035       18.9521467564       12.6008652064
  C        22.7849845044       17.9489006558       12.3907821958
  C        23.0569310169       16.9368142640       11.4529131480
  C        24.2758243077       16.9013977999       10.7794810901
  C        21.5207872333       17.9394225345       13.1614903060
  C        21.5412310033       17.9406873184       14.5822541598
  C        22.7589759612       17.8374795121       15.3266766956
  C        14.0447528647       17.8323525031       10.2835655040
  C        15.3508021367       17.8981811320       11.0005228649
  C        15.6094786342       18.9148793434       11.9324891041
  C        16.8197899381       18.9432793644       12.6211897664
  C        17.8018643920       17.9576680481       12.3984049790
  C        17.5490756478       16.9661796111       11.4323470455
  C        16.3383189268       16.9335266915       10.7448172578
  C        19.0676961642       17.9455517693       13.1686646439
  C        19.0601760663       17.9465786086       14.5900893096
  C        17.8493477482       17.8464587756       15.3450611604
  C        46.8035864239       17.2187038037       10.1592827742
  C        45.5125292177       17.1556966617       10.9049100674
  C        45.3051046686       16.1747861192       11.8872029906
  C        44.1225326840       16.1537768429       12.6222485332
  C        43.1162890850       17.1140004339       12.3982599190
  C        43.3212988839       18.0750617164       11.3896276006
  C        44.5044322215       18.0995449840       10.6550170288
  C        41.8618385056       17.1204599344       13.1863300014
  C        41.8658816666       17.1099764857       14.6087690008
  C        43.0740977493       17.2020889407       15.3690912607
  C        20.3038138070       17.9602605511       15.3024345295
  C        20.2927043528       17.9215864244       12.4899530310
  C        46.7825795554       17.2306486647        5.8882225850
  C        45.4777733815       17.1211380068        5.1731747574
  C        45.2587806726       16.1183694498        4.2160902381
  C        44.0694986637       16.0857197733        3.4913485350
  C        43.0677721915       17.0526480871        3.7056531249
  C        43.2772918757       18.0255001756        4.7011952532
  C        44.4677965117       18.0644555555        5.4211032401
  C        41.8200656545       17.0694204801        2.9083397395
  C        41.8445259632       17.0825789827        1.4869372582
  C        43.0637852560       17.1866339986        0.7458801181
  C        46.1529984962       26.6370866212        0.7262041685
  C        46.1620184864       26.6560066454        3.5358406455
  C        14.0400218735       17.8285199112        5.7061878500
  C        15.3538340518       17.8983603747        5.0056252898
  C        15.6237801371       18.9225506888        4.0860358978
  C        16.8476314596       18.9610547250        3.4230478780
  C        17.8260853339       17.9742179758        3.6551804254
  C        17.5616552783       16.9756739440        4.6096607701
  C        16.3400568530       16.9370322458        5.2767491892
  C        19.0920408834       17.9582369712        2.8872607661
  C        19.0731263271       17.9518764949        1.4662755657
  C        17.8557437824       17.8487818852        0.7212308265
  C        28.8072633875       14.0815377690       10.3593383140
  C        28.2115835277       12.9031015160       11.0473895313
  C        28.9406077259       12.1808195538       12.0034664274
  C        28.3508187941       11.1046301177       12.6620157581
  C        27.0201318298       10.7290073510       12.3879296153
  C        26.3145973362       11.4320660176       11.3947273722
  C        26.9008715820       12.5080594794       10.7348830099
  C        26.3542525424        9.6480441160       13.1493814839
  C        26.3274427841        9.6760279428       14.5700038890
  C        26.8227314090       10.7899948463       15.3193831691
  C        32.1774081346       21.2410094387       10.1063260430
  C        32.7620581766       22.4047252310       10.8354216680
  C        32.0128404760       23.0614311497       11.8243787370
  C        32.5764283791       24.0995798107       12.5611702074
  C        33.9042684640       24.5106331761       12.3315538051
  C        34.6354069136       23.8697528675       11.3126651742
  C        34.0756247265       22.8260713884       10.5780385773
  C        34.5277749759       25.5883569724       13.1355081122
  C        34.5194414963       25.5605534355       14.5579977132
  C        34.0158165714       24.4438891531       15.2971669024
  C        25.7083400348        8.5991168901       15.2825406394
  C        25.7235072768        8.5970736978       12.4708456013
  C        32.0782844697       21.1938892331        5.8477951720
  C        32.6601678283       22.3589932501        5.1158888083
  C        31.9337058592       23.0066712294        4.1044865904
  C        32.5102892842       24.0477233963        3.3797469399
  C        33.8291347850       24.4694265378        3.6424733851
  C        34.5363208377       23.8357310473        4.6827542758
  C        33.9637620400       22.7924661039        5.4060069356
  C        34.4716411335       25.5519249296        2.8598465892
  C        34.4911284092       25.5421924522        1.4369957631
  C        34.0014666120       24.4355986235        0.6740727571
  C        40.6071533498       17.0809432902        0.7627509025
  C        40.5884658723       17.0938544667        3.5726559220
  C        28.6589236680       14.0595499855        5.8220915837
  C        28.0532706168       12.9164330080        5.0809017221
  C        28.8075276281       12.2047781029        4.1353869323
  C        28.2345299826       11.1515452786        3.4286471323
  C        26.8924584289       10.7823171850        3.6454712484
  C        26.1541861244       11.4793640392        4.6199671730
  C        26.7253981943       12.5350588558        5.3275808542
  C        26.2654089246        9.6902789954        2.8653551423
  C        26.2834025444        9.6978708201        1.4442098319
  C        26.7995121742       10.8015428911        0.6951231393
  C        18.1352908613        3.1808449408       10.3171481597
  C        17.4056223476        4.2779841098       11.0156700582
  C        16.3897002222        3.9993625116       11.9428746378
  C        15.7417165845        5.0391724732       12.6064047508
  C        16.0935717187        6.3829420713       12.3669914312
  C        17.0831506813        6.6527394443       11.4035177277
  C        17.7324906980        5.6155588983       10.7384358956
  C        15.4690479835        7.4905191185       13.1300743664
  C        15.4843434601        7.4898976249       14.5517887858
  C        16.1860262469        6.4963582897       15.3049311059
  C        42.9456529827       31.8594454062       10.0728391852
  C        43.6460138943       30.7716897451       10.8167745150
  C        44.5916556563       31.0930109920       11.8027269505
  C        45.1973101646       30.0874619327       12.5504283560
  C        44.8707220603       28.7344362307       12.3356586205
  C        43.9447557200       28.4200928518       11.3225909168
  C        43.3359783744       29.4252417579       10.5745210875
  C        45.4883046042       27.6551395160       13.1388442699
  C        45.4924911552       27.6807561061       14.5605376435
  C        44.8054016914       28.6888185793       15.3071407596
  C        14.8553927085        8.5624121195       15.2641377074
  C        14.8736686808        8.5622076049       12.4514745261
  C        42.9464317683       31.9615425188        5.8090815167
  C        43.6915818029       30.8853430173        5.0955272553
  C        44.6563358173       31.1912463313        4.1234008726
  C        45.2777833306       30.1716487280        3.4056130886
  C        44.9537124643       28.8213773659        3.6430445996
  C        44.0199729339       28.5237006631        4.6535706029
  C        43.3917877230       29.5404870555        5.3657984428
  C        45.5626920131       27.7239593857        2.8577670436
  C        45.5330078042       27.7172407502        1.4364755580
  C        44.8266725656       28.7074650087        0.6835344594
  C        35.0975574241       26.6349533574        0.7325512903
  C        35.0847883682       26.6102265498        3.5431231071
  C        18.1484562580        3.2467523822        5.7066106912
  C        17.4298279296        4.3435789680        4.9971685398
  C        16.4144433371        4.0522467578        4.0738349536
  C        15.7660217427        5.0828312852        3.3984549488
  C        16.1207483482        6.4280740364        3.6209870788
  C        17.1123906208        6.7115303150        4.5779441149
  C        17.7601334414        5.6826574036        5.2577186993
  C        15.4900634794        7.5237211046        2.8485899797
  C        15.4957170775        7.5070130409        1.4274478053
  C        16.1923982557        6.5052587557        0.6807441715
  H        10.6722341660       12.4661511763        3.9041029823
  H        11.6942512378       10.5512108525        2.6623021789
  H        15.3908898370       11.1675252950        4.7728489794
  H        14.3506079476       13.0703351725        6.0181468705
  H        13.3754851862       11.6307384809        1.2011740750
  H        50.3224083431       22.7484132493        3.9868085316
  H        49.3191782920       24.6227420948        2.6806657887
  H        45.6419252069       24.1614204741        4.8639780823
  H        46.6628794380       22.2905823997        6.1723457779
  H        47.6295217054       23.5757653681        1.2461626968
  H        14.8717767584        8.5879479785        4.6085014395
  H        50.2865761272       22.7022538290       12.0606254356
  H        49.2685783177       24.5750723925       13.3606973290
  H        45.6104389446       24.1096893286       11.1454269086
  H        46.6525627205       22.2544483985        9.8310582552
  H        47.6074701795       23.5516822669       14.7968666533
  H        40.6437956645       17.1185966753       11.4188111724
  H        48.6870343149       14.0950811585        7.8000117912
  H        10.6809502639       12.4672455814       12.0937870527
  H        11.6886785289       10.5250500852       13.2974739092
  H        15.3921339301       11.1569423252       11.2045142186
  H        14.3641549120       13.0855743732        9.9891876160
  H        13.3748298573       11.6215405515       14.7530487581
  H        47.9301234326       14.2182063575        9.7108969370
  H        47.7799372645       14.3738060658        6.4953102281
  H        49.0829804003       18.5524165440       10.8671867041
  H        10.4158269923       14.1342946048        7.9988080199
  H        24.4752747001        3.0269634818        3.9115209271
  H        25.6017833456        4.8866692758        2.6714584407
  H        23.1961611462        7.7494244202        4.7965445425
  H        22.0904303284        5.8804551172        6.0406166117
  H        23.8057289929        5.7775491710        1.2226443064
  H        36.3668050092       32.1874525545        3.9727363515
  H        35.2310681716       30.3694063744        2.6971598208
  H        37.4977472294       27.4361110845        4.8787086034
  H        38.6130808206       29.2670961863        6.1644339336
  H        36.9895120576       29.4544697395        1.2688039549
  H        25.6632416946        8.6170037939        4.6252359999
  H        36.4464283631       32.2438493615       12.1056984728
  H        35.3210081590       30.4316130905       13.3945077859
  H        37.5029328156       27.4865279105       11.1420143540
  H        38.6025961699       29.3107707961        9.8395240684
  H        37.0067259541       29.4748141702       14.8215329792
  H        46.1089149230       26.5874809817       11.3855340390
  H        44.6682167647       35.1161769600        7.8141607117
  H        24.4587701821        3.0294243800       12.0563867486
  H        25.6093780651        4.8656930746       13.2973140499
  H        23.1987525288        7.7630274602       11.2266649547
  H        22.0604409280        5.9151046429        9.9845283609
  H        23.8154285187        5.7754745545       14.7729418472
  H        44.9535699861       34.3898297703        9.6946864412
  H        44.9018569030       34.2068268239        6.4907500183
  H        40.6649909537       33.2082630089       10.8527249508
  H        23.1500965508        1.9577585579        8.0029027052
  H        25.7574151529       19.6670142952        3.9645643522
  H        23.5981265246       19.7254992385        2.7173166859
  H        22.3130574810       16.1808889969        4.7864297646
  H        24.4812664529       16.1332879985        6.0320128160
  H        23.7055582841       17.7228294846        1.2350527937
  H        35.1075550452       15.4698545583        3.9810140166
  H        37.2336256295       15.3971823843        2.6753404531
  H        38.6990846917       18.7763653377        4.8986371398
  H        36.5749683603       18.8208440486        6.2156312742
  H        37.2118342061       17.3388302245        1.2409543267
  H        20.3236735363       17.9556507751        4.6470279025
  H        35.2375619991       15.3484683544       12.0133055621
  H        37.3602076545       15.3254343878       13.3181398664
  H        38.6772505037       18.8450676087       11.2262287383
  H        36.5388905528       18.8635801818        9.9279898458
  H        37.2300689300       17.3383515634       14.7911197366
  H        35.1174321406       26.6852800219       11.3891807825
  H        28.5078178597       21.0963494565        7.8927452106
  H        25.7156368848       19.6947687838       12.0839760392
  H        23.5330281202       19.7575103908       13.2990067793
  H        22.3169287812       16.1566083781       11.2870698185
  H        24.5042887571       16.1085511964       10.0712297780
  H        23.6940149837       17.7249635521       14.7857457939
  H        28.9628589384       21.7325357206        9.7099502897
  H        29.1708159606       21.7185676619        6.5200045906
  H        32.1889853079       18.6488699892       10.8903871565
  H        27.3507696223       19.0691702221        8.0792986011
  H        14.8512517784       19.6760642777       12.1018207229
  H        17.0195289989       19.7355545191       13.3394522553
  H        18.2995138783       16.1988742266       11.2535658657
  H        16.1278511506       16.1557323936       10.0146873646
  H        16.9092496653       17.7338513132       14.8130223750
  H        46.0877188863       15.4416518872       12.0679215972
  H        43.9634048138       15.3844626378       13.3746758749
  H        42.5537184282       18.8253742586       11.2115095684
  H        44.6775412019       18.8559696911        9.8930591717
  H        44.0161933862       17.3185515575       14.8410485598
  H        20.2902741828       17.9419566098       11.4016339857
  H        46.0365256874       15.3784749696        4.0410142888
  H        43.9043849182       15.3070318766        2.7498325751
  H        42.5101147121       18.7773811413        4.8742441416
  H        44.6489617642       18.8350025275        6.1665139216
  H        43.9981982695       17.2899058092        1.2899254136
  H        46.1988321487       26.6825998728        4.6232853854
  H        52.7411709459       21.0626785748        8.1946225066
  H        14.8653094946       19.6819858044        3.9096779320
  H        17.0596180302       19.7585916334        2.7142041585
  H        18.3100605169       16.2075089905        4.7930737182
  H        16.1185903253       16.1557519686        5.9997566139
  H        16.9204138199       17.7379937192        1.2616504768
  H        52.3223820516       21.6736226074        6.2946745892
  H        52.0134805615       21.7025954993        9.4954462447
  H        49.0670958176       18.6076536714        5.2041766621
  H        13.2471360947       19.0165368097        7.9757772334
  H        29.9628516350       12.4836109783       12.2198016704
  H        28.9156532577       10.5435901951       13.4033474825
  H        25.2865415018       11.1506431449       11.1764024239
  H        26.3532058502       13.0732253669        9.9848157305
  H        27.1944210995       11.6578455854       14.7827409489
  H        30.9940122548       22.7306295132       12.0125767994
  H        31.9888701216       24.6067101809       13.3233350373
  H        35.6633384652       24.1753778681       11.1285606914
  H        34.6481858234       22.3085705506        9.8117162995
  H        33.6660853959       23.5714038932       14.7526275128
  H        25.7616795392        8.5780353524       11.3831123130
  H        30.9216879804       22.6707083815        3.8898555979
  H        31.9382767292       24.5495234215        2.6023724005
  H        35.5570975975       24.1478442732        4.8936640370
  H        34.5182816054       22.2825082208        6.1901929419
  H        33.6407441169       23.5565839775        1.2005960220
  H        40.5816548548       17.0595963298        4.6604640423
  H        32.5174195780       14.1399727426        8.1750526364
  H        29.8459642106       12.4847886193        3.9748635874
  H        28.8254057104       10.5957887502        2.7038529924
  H        25.1156967802       11.2043678145        4.7925998154
  H        26.1537560154       13.0902649299        6.0675731601
  H        27.1523634528       11.6782376579        1.2305309440
  H        33.2909194959       14.2355295573        6.3526219987
  H        33.4097702580       14.3732670041        9.5325974537
  H        32.1107983129       18.5343136836        5.1362172331
  H        30.1882163415       14.1382511250        8.0749220401
  H        16.1177625014        2.9627878893       12.1290741207
  H        14.9521528278        4.8195867018       13.3218786007
  H        17.3656218308        7.6856616280       11.2107167191
  H        18.5147339750        5.8183737539       10.0108499866
  H        16.7525374173        5.7390065957       14.7713971062
  H        44.8279934913       32.1400924075       11.9768348615
  H        45.9372583095       30.3411899123       13.3063007112
  H        43.6818986971       27.3780407861       11.1526245813
  H        42.5991902700       29.1899533687        9.8100049176
  H        44.2300548061       29.4365806532       14.7688154995
  H        14.8499189899        8.5453871427       11.3632555193
  H        44.9000760271       32.2339233746        3.9321741617
  H        46.0248043939       30.4128519772        2.6524807837
  H        43.7626917128       27.4839996018        4.8448671897
  H        42.6450929696       29.3177605612        6.1240771183
  H        44.2681796799       29.4703517616        1.2181390016
  H        35.0426179958       26.6227891124        4.6306509802
  H        36.6052093761       35.1338339991        8.1807347412
  H        16.1433517563        3.0126465455        3.9042452646
  H        14.9735257616        4.8559120879        2.6885816272
  H        17.3960025491        7.7469998537        4.7546528437
  H        18.5431441723        5.8931438229        5.9823287842
  H        16.7639382656        5.7550874544        1.2191668708
  H        36.2788357013       34.4819142046        6.2733287360
  H        36.3810136576       34.2090699331        9.4998336078
  H        40.5796481798       33.2022591233        5.1539061864
  H        17.4707966404        1.9469632434        7.9739536659
  H        28.7162521234       19.0676790522       12.2949852146
  H        28.6458632870       18.8761536186        3.8739666194
  H        30.8173073925       15.2257032070        3.8254687690
  H        32.4730543080       16.1884200640       12.2479731226
  H        18.8537426629        0.8689604281       12.3353311420
  H        40.5282533347       35.2289664920        3.9521410602
  H        42.3237249871       34.4188483715        3.5903148056
  H        22.0874111887        0.6921930752       12.3515925168
  H        11.5965959985       18.7128689853       12.3826160834
  H        52.2647207286       18.4313828661        3.6774247734
  H        49.2551774531       16.4765792062        3.5841571376
  H        10.1503931974       15.7982662117       12.2924909815
  H        50.8499386200       17.6926256015        3.9540378627
  H        10.0460497680       17.3947552514       12.0519049554
  H        20.2150613121        0.0020403259       12.0419582728
  H        39.1836716396       36.1243190095        3.6864449557
 Ni        30.3565992096       17.4702648357        3.0833974340
 Ni        31.4136081714       17.3959491000       14.9902719063
 Ni        30.3100338139       17.7961508225        0.8326847419
 Ni        30.6935158360       17.7236872303       12.8252840467
  O        10.6497797600       14.3652224115        5.4857980839
  O        12.6130489550       14.6574125140        6.5838223707
  O        49.1475990941       16.8459228710        7.9896405226
  O        50.3500978246       20.9362796516        5.6482565414
  O        48.3484631815       20.5932315450        6.6659264034
  O        11.0509019554       17.0540682767        6.5006349896
  O        50.3206987444       20.8817137626       10.4068316999
  O        48.3465983702       20.5866467181        9.3270306897
  O        49.5433450906       18.2484147716       10.0682809755
  O        12.3587958374       18.6246559973        7.9996373617
  O        48.6931628962       14.1486555493        6.7512755211
  O         8.2098226985       14.2104661789        9.3225599588
  O        10.7352815083       14.5068037693       10.6643700119
  O        12.5717069394       14.5827172260        9.3285392639
  O        22.8441716509        2.0422062437        5.4874612352
  O        21.6043682815        3.5916305449        6.5899872487
  O        42.0579136653       34.1370543323        7.9790383558
  O        37.9812655807       33.1354919644        5.5720230393
  O        39.2174613724       31.5749557883        6.6655413995
  O        20.3082713178        1.0394896997        6.5018736633
  O        38.0242157590       33.1850899916       10.4154835012
  O        39.2180419771       31.5827735807        9.3275307759
  O        40.6521955271       33.7691115037       10.0601992733
  O        18.2556777781        1.3760714807        7.9967726341
  O        44.6222175880       35.1005384353        6.7588512121
  O        24.2055087356       -0.0001240423        9.3207560598
  O        22.7530512281        2.0562401496       10.5827714945
  O        21.6242890833        3.5954345791        9.3419332083
  O        27.4543228389       18.6930662934        5.4900516047
  O        26.6891283304       16.9183042750        6.6722982168
  O        30.6360747696       19.3499070679        8.0098947697
  O        33.5435442415       16.3305786854        5.6595783027
  O        34.2672626030       18.1830834553        6.7437995339
  O        29.5307388162       17.0178365011        6.5756399771
  O        33.5872853334       16.2660076766       10.4140954735
  O        34.2655563728       18.1797243745        9.4038390917
  O        31.6444276596       18.3153932427       10.1572798655
  O        30.2899950326       15.1037104271        8.0739164131
  O        28.5510510270       21.0300952231        6.8234147724
  O        28.5097788519       20.9612368831        9.3286096873
  O        27.4543720763       18.6793690658       10.6582008976
  O        26.6895630872       16.9299438883        9.4177243016
  O        13.1460817811       18.6939515778       10.5860548059
  O        13.9177625578       16.9159979242        9.4039922081
  O        50.5956780758       19.3502828881        8.0204655505
  O        47.6823094176       16.3273626627       10.4175966005
  O        46.9507802329       18.1757950917        9.3251424330
  O        11.0689506849       17.0159275720        9.4895500588
  O        47.6744067111       16.3359538935        5.6526641299
  O        46.9247342045       18.2358370550        6.6630922894
  O        49.5686264640       18.3177578996        5.9822131849
  O        10.3186321336       15.1001668250        7.9970970502
  O        52.6706569339       21.0280055487        9.2418008896
  O        12.1468084642       20.8914005505        6.6733113894
  O        13.1049659173       18.6142732119        5.3262145018
  O        13.9554679914       16.9865003787        6.6652405154
  O        29.9959532951       14.4359552297       10.6629896763
  O        28.0705822399       14.6578251872        9.4871620075
  O        32.0715559690       16.8538449820        8.0690311158
  O        30.9570200526       20.9551431509       10.3312962793
  O        32.9567679416       20.5866956721        9.3252935297
  O        29.5674151448       17.0720742270        9.5775335989
  O        30.8604773463       20.8784640359        5.5924946988
  O        32.8593901135       20.5814029805        6.6574509788
  O        31.6071651649       18.2365994051        5.9116446525
  O        28.2354662115       18.6696905494        8.0684381225
  O        32.4930686260       14.2079764088        9.2470992867
  O        32.4021077977       14.2103607971        6.7453654700
  O        29.8345315637       14.4292628068        5.4920226606
  O        27.9575703243       14.5858980085        6.7543496598
  O        17.8891708948        1.9665233263       10.6628198456
  O        18.9561133071        3.5271405692        9.4080535762
  O        39.1684675418       34.1385407087        7.9971830034
  O        43.2801769104       33.0587739228       10.3316889566
  O        42.0343410695       31.5064040118        9.2415572754
  O        20.3173522628        1.0362976191        9.4802775892
  O        43.2760945262       33.1824595559        5.5748700538
  O        42.0051922207       31.5841195519        6.5829976953
  O        40.5790547493       33.7750575390        5.9359498836
  O        22.3671202597        1.3843327879        7.9980261435
  O        36.6727526858       35.0997222031        9.2333312619
  O        16.4456178563        0.0640287340        6.6681729925
  O        17.9363623764        2.0431577837        5.3264025947
  O        18.9188180597        3.5931336384        6.6658930287
  O        29.6021329568       18.9078628385        4.0777061792
  O        29.6441249696       19.1179216852       11.9973043648
  O        31.2608774683       16.0562366490        4.0795598066
  O        31.5188251032       16.1801767946       12.0567949091
  O        39.4568523587       35.2437183694        4.0020124951
  O        19.1415565748        0.0045008253       11.9905226677
  O        41.9694738438       35.1726358362        4.0871647828
  O        21.6912678277       -0.0694213071       11.8960407767
  O        51.3647894753       18.6143776783        4.0052712301
  O        10.7508505001       18.7472171801       11.9050175109
  O        50.0794566546       16.4127391151        4.0917148459
  O         9.5244174246       16.4831248029       11.9911849895
 Zr         9.2967433528       16.0528766249        6.1821877835
 Zr        49.8362976498       16.0068995747        9.7465553207
 Zr        22.0732390706        0.0296440390        6.1892910008
 Zr        42.4608404200       35.1533227840        9.8010309117
 Zr        29.5566267022       19.0713861347        6.2636854389
 Zr        29.5592730829       19.1945847467        9.8239607981
 Zr        11.0373185987       19.0524383490        9.8277206004
 Zr        11.0434422737       19.1551898318        6.2511083230
 Zr        31.3362686034       16.0601880757        9.8493853874
 Zr        31.3508950228       15.9841446031        6.2639270675
 Zr        18.6011169365       -0.0017506810        9.7636504022
 Zr        18.5065058201       -0.0082329967        6.2135334294
 Zr        12.3010783096       16.3232083004        7.9904547860
 Zr        48.6160568698       18.8330333914        8.0099434430
 Zr        20.3148459346        2.4731143652        7.9907904663
 Zr        40.6427684490       32.6867183968        7.9782249445
 Zr        28.3177631139       16.3251043727        8.0838466743
 Zr        32.6066345584       18.8250610266        8.0292289986
  H        30.0706430200       16.5591054572        1.7632293067
  H        31.4917687371       18.5704327183       13.9844996054
