     560
 i =      114, E =     -4340.4245802448
  C        11.8585036957       14.0533862046        5.7415622050
  C        12.4558344519       12.8903627470        5.0233185408
  C        11.7041840271       12.1717020851        4.0814105336
  C        12.2804634381       11.1094340081        3.3890834752
  C        13.6209059943       10.7392312433        3.6170111871
  C        14.3539761569       11.4425253256        4.5907756430
  C        13.7812037054       12.5075423995        5.2823134899
  C        14.2603481567        9.6485385184        2.8435764992
  C        14.2554066823        9.6563729601        1.4218674980
  C        13.7422613230       10.7584904876        0.6679397270
  C        49.1266206774       21.2334035254        5.8796483054
  C        48.5498193176       22.4012689072        5.1526775446
  C        49.2998178051       23.0685239209        4.1715926799
  C        48.7328391418       24.1075999373        3.4383714908
  C        47.4023116858       24.5092745493        3.6670471834
  C        46.6714192710       23.8604722898        4.6806587856
  C        47.2338880051       22.8156034263        5.4100308492
  C        46.7720542763       25.5869139036        2.8697436202
  C        46.7610789253       25.5572549660        1.4479895875
  C        47.2609520443       24.4421228760        0.7045166326
  C        14.8592530650        8.5699873947        0.7085856184
  C        14.8912061705        8.5966132093        3.5202112512
  C        49.1128805466       21.2034839414       10.1452068459
  C        48.5274443572       22.3647485519       10.8723701322
  C        49.2665613739       23.0252096484       11.8655484594
  C        48.6902149408       24.0597217516       12.5970325131
  C        47.3599050063       24.4567389832       12.3586053237
  C        46.6396425981       23.8120826466       11.3348045157
  C        47.2131924868       22.7762303204       10.6029516888
  C        46.7214687193       25.5316730651       13.1496517988
  C        46.7332258165       25.5280007380       14.5713530936
  C        47.2486451244       24.4287920189       15.3277556657
  C        40.6117950817       17.1210728590       15.3043776381
  C        40.6270183128       17.1871158716       12.4937271926
  C        11.8827448388       14.0863798766       10.2854764445
  C        12.4716948902       12.9103357979       10.9895263179
  C        11.7141536430       12.1776013273       11.9160068049
  C        12.2804426393       11.0949841036       12.5843982581
  C        13.6190367148       10.7205920944       12.3522685391
  C        14.3569481993       11.4355682809       11.3909569821
  C        13.7918150678       12.5168918699       10.7182757534
  C        14.2524714019        9.6238117820       13.1227534876
  C        14.2512637291        9.6438682561       14.5445985840
  C        13.7415496230       10.7528809720       15.2916838864
  C        22.5058611291        3.2431337258        5.7479923474
  C        23.2078644675        4.3469119144        5.0353154056
  C        24.2055981908        4.0653296663        4.0905856132
  C        24.8256488063        5.1033665447        3.4005018332
  C        24.4622460644        6.4443253124        3.6346172902
  C        23.4890517290        6.7175546605        4.6129451238
  C        22.8653867699        5.6814537454        5.3024544980
  C        25.0705593167        7.5493875832        2.8606041880
  C        25.0662839105        7.5370654281        1.4394355840
  C        24.3748512142        6.5351685437        0.6875120643
  C        38.3016492856       31.9260737184        5.8467510043
  C        37.5698954603       30.8365988822        5.1348317216
  C        36.6087702036       31.1426319360        4.1586404329
  C        35.9858320591       30.1249984047        3.4403385977
  C        36.3071947591       28.7732975521        3.6748053879
  C        37.2399276419       28.4747767518        4.6865198823
  C        37.8671032565       29.4913209913        5.4038920466
  C        35.6963802214       27.6836105159        2.8769201692
  C        35.7260707532       27.6979389115        1.4546386169
  C        36.4329878423       28.6988271567        0.7165303047
  C        25.7014510047        8.6041631896        0.7259636217
  C        25.6522224917        8.6289000609        3.5366184419
  C        38.3261829924       31.9609799551       10.1553733028
  C        37.5987414680       30.8877445510       10.8935394325
  C        36.6667699093       31.1970953180       11.8963005606
  C        36.0503116775       30.1794695087       12.6222206954
  C        36.3507429359       28.8256812820       12.3701131894
  C        37.2601060742       28.5263590327       11.3368669170
  C        37.8785346253       29.5405708456       10.6118395925
  C        35.7379743339       27.7272963245       13.1537125707
  C        35.7471135943       27.7203277740       14.5762372933
  C        36.4422237872       28.7100899870       15.3396738138
  C        46.1352662392       26.6206660564       15.2814798728
  C        46.0875217167       26.5800332562       12.4735908093
  C        22.4660002595        3.2540545677       10.2520297564
  C        23.1742787525        4.3593924401       10.9638759676
  C        24.1853224644        4.0668670993       11.8929947210
  C        24.8255778905        5.0933039472       12.5824031751
  C        24.4740415415        6.4401651552       12.3646794326
  C        23.4877470598        6.7261572388       11.4022671072
  C        22.8431490455        5.6999744077       10.7126834840
  C        25.1086268841        7.5333147494       13.1413640923
  C        25.0867021872        7.5278966131       14.5632262956
  C        24.3817662331        6.5327539800       15.3111549831
  C        26.5603620863       17.8277484905        5.7894273359
  C        25.2613094966       17.8890819602        5.0599823383
  C        25.0050440363       18.9084280629        4.1298108485
  C        23.7980098016       18.9388728576        3.4356273997
  C        22.8142480073       17.9536703685        3.6520718895
  C        23.0655189323       16.9570386104        4.6134980139
  C        24.2740465651       16.9214324955        5.3056292829
  C        21.5482804433       17.9499810557        2.8802940372
  C        21.5566479205       17.9511597498        1.4583447975
  C        22.7670565288       17.8497487136        0.7022591992
  C        34.4202160321       17.2148612128        5.9064003779
  C        35.7136969778       17.1487241811        5.1679601594
  C        35.9068675289       16.1836944622        4.1668321343
  C        37.0890727734       16.1596922045        3.4314138507
  C        38.1099085155       17.1001835852        3.6736842275
  C        37.9186844477       18.0443638605        4.7011393797
  C        36.7351850916       18.0733650047        5.4354041652
  C        39.3633894178       17.1058629395        2.8830024676
  C        39.3567649176       17.1231216593        1.4601651564
  C        38.1486133303       17.2438223804        0.7031668320
  C        20.3125555370       17.9690264473        0.7466088559
  C        20.3227313818       17.9374100446        3.5590467886
  C        34.4340798005       17.2248325083       10.1688849792
  C        35.7429052306       17.1677955275       10.8814546939
  C        35.9903741485       16.1593034021       11.8270227913
  C        37.1733794307       16.1551223812       12.5602767389
  C        38.1468060425       17.1536781327       12.3634130633
  C        37.9093123057       18.1371549802       11.3843587331
  C        36.7197757355       18.1509549328       10.6583891265
  C        39.3964394844       17.1687336245       13.1597542914
  C        39.3738566354       17.1543418197       14.5815871419
  C        38.1565387127       17.2558756790       15.3260012695
  C        35.1147508168       26.6418909182       15.2801455651
  C        35.1457103814       26.6574701368       12.4706941791
  C        26.5620558741       17.8302855692       10.3249600561
  C        25.2465582582       17.8932994425       11.0202190892
  C        24.9701309621       18.9297320927       11.9248538093
  C        23.7528160622       18.9635441533       12.5985627573
  C        22.7842034622       17.9628920058       12.3877148748
  C        23.0523371744       16.9530982964       11.4460557397
  C        24.2706132964       16.9157832409       10.7718174769
  C        21.5212530969       17.9517884983       13.1606145999
  C        21.5422581620       17.9520253486       14.5815708149
  C        22.7603165992       17.8511401352       15.3257902975
  C        14.0448436947       17.8324201833       10.2837332338
  C        15.3507510899       17.8989074212       11.0010309518
  C        15.6076756999       18.9148812307       11.9343175044
  C        16.8177948113       18.9444745432       12.6232692972
  C        17.8017253327       17.9609740594       12.3993227572
  C        17.5505971145       16.9700838991       11.4321840203
  C        16.3398747338       16.9361056942       10.7445215044
  C        19.0678915455       17.9512430106       13.1691770683
  C        19.0610676739       17.9512974129       14.5906284702
  C        17.8507861227       17.8473406845       15.3459194174
  C        46.8024952207       17.2189517689       10.1575996052
  C        45.5081012238       17.1596133818       10.8979370592
  C        45.2887947232       16.1769805838       11.8757452984
  C        44.1033043394       16.1639480223       12.6065814192
  C        43.1064923426       17.1344084893       12.3834971444
  C        43.3224581643       18.0958472452       11.3776693919
  C        44.5081118248       18.1120634667       10.6471344759
  C        41.8520707640       17.1521038097       13.1715145022
  C        41.8578679152       17.1365173677       14.5938483468
  C        43.0678879430       17.2197709832       15.3524467927
  C        20.3050142097       17.9680252752       15.3024421051
  C        20.2926094673       17.9312840186       12.4899734907
  C        46.7820762048       17.2321367133        5.8850227229
  C        45.4788245888       17.1260514890        5.1646302777
  C        45.2608391801       16.1267424359        4.2033783952
  C        44.0726010916       16.0961609521        3.4761260515
  C        43.0695795667       17.0618809916        3.6910222842
  C        43.2788322973       18.0321212888        4.6894674967
  C        44.4680868582       18.0688860846        5.4120992940
  C        41.8204859607       17.0801958112        2.8941599450
  C        41.8420005323       17.0982743568        1.4724144727
  C        43.0601420307       17.2005720583        0.7293096168
  C        46.1530552876       26.6371166237        0.7262314043
  C        46.1621355062       26.6560502106        3.5358739971
  C        14.0404437990       17.8286443968        5.7061114181
  C        15.3545523557       17.8989965932        5.0057397555
  C        15.6238491055       18.9225747066        4.0852273270
  C        16.8478928894       18.9618554838        3.4225829504
  C        17.8276334679       17.9764688037        3.6557697721
  C        17.5637821695       16.9784894704        4.6110701902
  C        16.3419105963       16.9390444478        5.2778247414
  C        19.0938582833       17.9619170684        2.8878893359
  C        19.0748416509       17.9556325091        1.4668180760
  C        17.8575224888       17.8493470826        0.7220974783
  C        28.8106383756       14.0809762973       10.3614275650
  C        28.2202295526       12.8990977461       11.0462282113
  C        28.9513005907       12.1776606511       12.0015877193
  C        28.3635456190       11.0997119295       12.6592469110
  C        27.0332772373       10.7219893845       12.3857126305
  C        26.3264613328       11.4236382348       11.3922291007
  C        26.9104912575       12.5010147209       10.7329261409
  C        26.3674408512        9.6415762275       13.1482349526
  C        26.3409614396        9.6698459143       14.5689943299
  C        26.8392711083       10.7826156935       15.3180832856
  C        32.1699758935       21.2459663146       10.0995445751
  C        32.7568695162       22.4120284239       10.8219594015
  C        32.0115979656       23.0626142414       11.8181625027
  C        32.5775422321       24.0978604632       12.5569488440
  C        33.9039226091       24.5113670972       12.3232333397
  C        34.6308817173       23.8764317736       11.2973554770
  C        34.0688764759       22.8356502939       10.5602645772
  C        34.5299262986       25.5862518327       13.1288577960
  C        34.5228502276       25.5576264889       14.5514974098
  C        34.0182955687       24.4416959241       15.2909215496
  C        25.7183466128        8.5951086137       15.2819805227
  C        25.7338638168        8.5918052868       12.4702841308
  C        32.0731675744       21.1973055417        5.8381775418
  C        32.6546067418       22.3609872785        5.1072813068
  C        31.9297415621       23.0076259859        4.0938699545
  C        32.5073996063       24.0486892648        3.3701088402
  C        33.8252947445       24.4719384075        3.6359432249
  C        34.5301558948       23.8399095023        4.6788943532
  C        33.9570934037       22.7963474367        5.4008735307
  C        34.4704543555       25.5529171566        2.8533731616
  C        34.4923713153       25.5410913984        1.4305457849
  C        34.0025932409       24.4343205492        0.6679134703
  C        40.6031266156       17.1028374388        0.7499221920
  C        40.5893091771       17.1017315309        3.5600275384
  C        28.6635665125       14.0617866182        5.8209563861
  C        28.0603522182       12.9171521235        5.0794927617
  C        28.8164537673       12.2026777370        4.1373981681
  C        28.2441905826       11.1486351807        3.4308720866
  C        26.9012013022       10.7806233214        3.6447220955
  C        26.1612771063       11.4802877648        4.6161767355
  C        26.7314609653       12.5368919607        5.3232768685
  C        26.2741429929        9.6881058217        2.8647259857
  C        26.2941616150        9.6941065524        1.4434960976
  C        26.8144432589       10.7953267893        0.6937872009
  C        18.1353326010        3.1808777794       10.3171420254
  C        17.4056741713        4.2780040399       11.0156641817
  C        16.3897492311        3.9993945304       11.9428747354
  C        15.7417233260        5.0391954251       12.6063728896
  C        16.0935568766        6.3829762303       12.3669784692
  C        17.0831263708        6.6527692624       11.4034890624
  C        17.7325117567        5.6155932335       10.7384397909
  C        15.4689808837        7.4905250400       13.1300663191
  C        15.4842871566        7.4898776849       14.5517842541
  C        16.1859224874        6.4963034271       15.3049266761
  C        42.9456440004       31.8594695483       10.0728777646
  C        43.6460167288       30.7717181671       10.8167983867
  C        44.5916856493       31.0930388071       11.8027261227
  C        45.1973824499       30.0874927187       12.5504027708
  C        44.8707748368       28.7344616509       12.3356729721
  C        43.9448306972       28.4201188031       11.3225786223
  C        43.3360161248       29.4252625202       10.5745304448
  C        45.4883422231       27.6551583126       13.1388697328
  C        45.4925427383       27.6807843675       14.5605617953
  C        44.8055114742       28.6888798352       15.3071698865
  C        14.8552910954        8.5623610016       15.2641448046
  C        14.8736550315        8.5622479922       12.4514691396
  C        42.9464107418       31.9616035981        5.8090060109
  C        43.6915660732       30.8854167998        5.0954627462
  C        44.6563302118       31.1913117882        4.1233408859
  C        45.2778043212       30.1717230306        3.4055670295
  C        44.9538188190       28.8214372323        3.6430359817
  C        44.0200869897       28.5237701726        4.6535719369
  C        43.3918802301       29.5405457584        5.3657871698
  C        45.5628407640       27.7240200030        2.8577973858
  C        45.5331280179       27.7173047064        1.4365045338
  C        44.8268192228       28.7075488606        0.6835611963
  C        35.1018328869       26.6321023920        0.7260863271
  C        35.0848342051       26.6108095882        3.5364677195
  C        18.1485028506        3.2467529136        5.7065839848
  C        17.4298152469        4.3435583465        4.9971881672
  C        16.4144279253        4.0522083405        4.0738543079
  C        15.7659593217        5.0827752685        3.3984946453
  C        16.1206567968        6.4280274302        3.6210218533
  C        17.1122644493        6.7115066283        4.5780095012
  C        17.7600548035        5.6826498330        5.2577627397
  C        15.4899887517        7.5236679417        2.8486013315
  C        15.4956087557        7.5069463231        1.4274570975
  C        16.1923031371        6.5052105328        0.6807408676
  H        10.6721593010       12.4660761397        3.9041947956
  H        11.6941622434       10.5511428286        2.6624097030
  H        15.3908795911       11.1676086431        4.7727610968
  H        14.3506303655       13.0704269223        6.0180437027
  H        13.3754217113       11.6307081757        1.2012105756
  H        50.3225210112       22.7484952336        3.9868197300
  H        49.3192612564       24.6228231739        2.6807170251
  H        45.6419468691       24.1612847501        4.8638687800
  H        46.6629219196       22.2904122348        6.1721926316
  H        47.6294547883       23.5757328360        1.2462031086
  H        14.8717219286        8.5879200053        4.6085219873
  H        50.2865140381       22.7021812666       12.0606385810
  H        49.2685322996       24.5750257587       13.3606928365
  H        45.6103555497       24.1095879074       11.1455156310
  H        46.6524716309       22.2543388330        9.8311314567
  H        47.6073492238       23.5516233798       14.7968943124
  H        40.6318554709       17.1708816556       11.4054642173
  H        48.6868843233       14.0952254652        7.7999334115
  H        10.6808567354       12.4671235985       12.0936778663
  H        11.6885961691       10.5249475151       13.2973348065
  H        15.3921809959       11.1571555960       11.2046928931
  H        14.3641927052       13.0857803937        9.9893991306
  H        13.3748073655       11.6215363030       14.7530626712
  H        47.9301298186       14.2181230771        9.7111177683
  H        47.7798528239       14.3736871533        6.4951149024
  H        49.0830341310       18.5522989011       10.8670279547
  H        10.4158224854       14.1343231817        7.9988129526
  H        24.4740691036        3.0269728828        3.9093633857
  H        25.6019397867        4.8859476387        2.6701058575
  H        23.2006715337        7.7501598708        4.7982418811
  H        22.0935401362        5.8818415192        6.0414889531
  H        23.8063851777        5.7801154131        1.2226641203
  H        36.3736007394       32.1865098239        3.9646728407
  H        35.2404380122       30.3690967628        2.6865683126
  H        37.4979910107       27.4349250668        4.8764310216
  H        38.6115033066       29.2653743796        6.1638453429
  H        36.9995938978       29.4479021474        1.2619928352
  H        25.6681293282        8.6172980953        4.6249183396
  H        36.4460949476       32.2415718870       12.1046993750
  H        35.3226730238       30.4264987188       13.3921501548
  H        37.5048800677       27.4857671033       11.1342711694
  H        38.6027363706       29.3128054702        9.8334320297
  H        37.0168663155       29.4674649823       14.8143381178
  H        46.1089399330       26.5874699066       11.3855561406
  H        44.6682419499       35.1162068931        7.8141269143
  H        24.4582926651        3.0269024527       12.0568626868
  H        25.6116450373        4.8612416246       13.2978283761
  H        23.2064065451        7.7624170656       11.2262916452
  H        22.0649695006        5.9163559408        9.9844054173
  H        23.8180179560        5.7763134657       14.7730467534
  H        44.9535664665       34.3897785134        9.6946292850
  H        44.9018779373       34.2068582084        6.4907346405
  H        40.6651853834       33.2085239474       10.8527383630
  H        23.1501851304        1.9578283502        8.0028765446
  H        25.7598483166       19.6743768521        3.9676312299
  H        23.6013323754       19.7341613065        2.7198707811
  H        22.3148188575       16.1886616009        4.7865365424
  H        24.4823513420       16.1398846413        6.0325637778
  H        23.7077260177       17.7377514919        1.2335643990
  H        35.1117547992       15.4681995561        3.9698856508
  H        37.2354336124       15.4038046133        2.6629780702
  H        38.6969083805       18.7799823149        4.8936595579
  H        36.5737704381       18.8195127723        6.2099558098
  H        37.2079874523       17.3594680058        1.2341261520
  H        20.3259132207       17.9606998458        4.6473373218
  H        35.2401626666       15.3878909661       11.9840125440
  H        37.3583578081       15.3717169081       13.2920413729
  H        38.6535443822       18.9149829763       11.2260543545
  H        36.5166996656       18.9300906896        9.9271802191
  H        37.2220480557       17.3786325818       14.7857104699
  H        35.1179729848       26.6848724384       11.3830012941
  H        28.5076481115       21.0931502072        7.8893785109
  H        25.7208040130       19.7003098664       12.0841707851
  H        23.5379801073       19.7678310295       13.2988774893
  H        22.3102542323       16.1751700193       11.2788511651
  H        24.4963791917       16.1234457413       10.0621755927
  H        23.6956721117       17.7410823343       14.7848564673
  H        28.9570815851       21.7358283792        9.7129865029
  H        29.1748843798       21.7151242543        6.5224258152
  H        32.3235875303       18.7675444953       10.8094114891
  H        27.3469134080       19.0628928940        8.0673638657
  H        14.8482261753       19.6746658032       12.1044137551
  H        17.0160725865       19.7362683072       13.3424667423
  H        18.3023968853       16.2043291119       11.2524620617
  H        16.1308370325       16.1587218593       10.0135305836
  H        16.9108815603       17.7320911143       14.8140918861
  H        46.0644929817       15.4366294039       12.0571635511
  H        43.9351276733       15.3939195376       13.3563233637
  H        42.5622482990       18.8536127080       11.1995060372
  H        44.6902480991       18.8692718001        9.8881297428
  H        44.0095711384       17.3332231512       14.8230221056
  H        20.2894850258       17.9524676342       11.4016719991
  H        46.0382621381       15.3866314868        4.0275421885
  H        43.9094041495       15.3189467219        2.7326026078
  H        42.5116852461       18.7837618991        4.8637496702
  H        44.6471720335       18.8374876090        6.1600491217
  H        43.9960610597       17.2984885975        1.2717803180
  H        46.1989627352       26.6826377132        4.6233188672
  H        52.7412240776       21.0626933920        8.1946462567
  H        14.8646844800       19.6810760429        3.9078334570
  H        17.0590359511       19.7589878212        2.7130326873
  H        18.3128785724       16.2112399378        4.7955306873
  H        16.1212202903       16.1580593141        6.0014040256
  H        16.9226567109       17.7357129433        1.2627239831
  H        52.3223769750       21.6735858064        6.2946448837
  H        52.0134379653       21.7025705929        9.4954172052
  H        49.0673459242       18.6076652827        5.2038574849
  H        13.2472147373       19.0164076957        7.9758922837
  H        29.9720624449       12.4838938714       12.2202086726
  H        28.9297324496       10.5397302422       13.4003402234
  H        25.2988133371       11.1406430634       11.1740756613
  H        26.3611884732       13.0655860512        9.9836402553
  H        27.2144942970       11.6488577885       14.7813477445
  H        30.9954760111       22.7267150369       12.0122442804
  H        31.9930224874       24.5999409509       13.3247421220
  H        35.6577711709       24.1836654692       11.1102127205
  H        34.6394162288       22.3216398084        9.7900712265
  H        33.6679074850       23.5690862558       14.7470890693
  H        25.7715626732        8.5724239201       11.3825369054
  H        30.9189165101       22.6705409846        3.8756192390
  H        31.9370043040       24.5487394751        2.5904540532
  H        35.5500215693       24.1531609247        4.8923757661
  H        34.5108891649       22.2879827303        6.1865039229
  H        33.6403918135       23.5556185630        1.1939208530
  H        40.5839365011       17.0629163453        4.6477098100
  H        32.5119376245       14.1478072998        8.1802781990
  H        29.8558233150       12.4808516387        3.9795075465
  H        28.8367216080       10.5911112709        2.7087699094
  H        25.1221144856       11.2065695696        4.7868015582
  H        26.1581147849       13.0937249142        6.0607174123
  H        27.1694983567       11.6714445831        1.2285371488
  H        33.2911088926       14.2415714567        6.3572305618
  H        33.4110065774       14.3687920300        9.5322845418
  H        32.0458133683       18.5031611353        5.0941839828
  H        30.1924140241       14.1424252757        8.0674661247
  H        16.1177876173        2.9628245439       12.1290551292
  H        14.9521347554        4.8195942773       13.3218143799
  H        17.3655602087        7.6856963683       11.2106548431
  H        18.5147297870        5.8184433022       10.0108373777
  H        16.7524545133        5.7389670151       14.7713943900
  H        44.8280870265       32.1401165111       11.9767814520
  H        45.9373422764       30.3412310596       13.3062610984
  H        43.6819780147       27.3780677196       11.1525992471
  H        42.5992853036       29.1899768508        9.8099576299
  H        44.2301969519       29.4366629390       14.7688426572
  H        14.8499301088        8.5454549851       11.3632497637
  H        44.9000119076       32.2339877678        3.9320322164
  H        46.0248585165       30.4129340599        2.6524690674
  H        43.7629148567       27.4840577439        4.8449455390
  H        42.6451758067       29.3178014613        6.1240482419
  H        44.2683741019       29.4704743423        1.2181586467
  H        35.0406909784       26.6248515099        4.6239115324
  H        36.6051846829       35.1338090677        8.1807832969
  H        16.1433057527        3.0126109874        3.9043057330
  H        14.9734805537        4.8558426515        2.6886092237
  H        17.3958516491        7.7469808457        4.7547261509
  H        18.5430114501        5.8931652842        5.9824225159
  H        16.7638304035        5.7550305049        1.2191642386
  H        36.2787197548       34.4819869107        6.2731946381
  H        36.3809645227       34.2091471762        9.4999195597
  H        40.5797938421       33.2023284693        5.1536773270
  H        17.4708730972        1.9469881172        7.9739717425
  H        28.7811528106       19.1359942135       12.4847876692
  H        28.7218159309       18.9593680591        3.8007214205
  H        30.7785969246       15.3306329036        3.8344731164
  H        32.5395558038       16.2184684462       12.3620418699
  H        18.8537745367        0.8689675140       12.3353581860
  H        40.5282700109       35.2289921850        3.9521299654
  H        42.3238212787       34.4190650776        3.5902042546
  H        22.0874468184        0.6921292630       12.3516815856
  H        11.5965725369       18.7129578013       12.3826653204
  H        52.2648580806       18.4312982777        3.6775408199
  H        49.2550017341       16.4765240681        3.5842157954
  H        10.1501579479       15.7982187326       12.2926545232
  H        50.8500028198       17.6926640212        3.9539935712
  H        10.0460762693       17.3947186095       12.0519030850
  H        20.2151285089        0.0020823861       12.0419528035
  H        39.1836238094       36.1243231079        3.6865126992
 Ni        30.3128563682       17.4509319554        2.8360340837
 Ni        30.7338750097       17.7899428576       12.3992473120
  O        10.6497607375       14.3652509654        5.4857994076
  O        12.6130387375       14.6574179849        6.5838343053
  O        49.1476452585       16.8458988757        7.9896572167
  O        50.3501241518       20.9362025354        5.6481867333
  O        48.3484568001       20.5932655625        6.6658749518
  O        11.0508737060       17.0539941596        6.5006194338
  O        50.3206515716       20.8816642851       10.4068512034
  O        48.3466080516       20.5866112804        9.3269792920
  O        49.5436396601       18.2483931708       10.0682246183
  O        12.3588187595       18.6246285750        7.9996232665
  O        48.6930958560       14.1487253752        6.7512340296
  O         8.2097909583       14.2105775375        9.3226666797
  O        10.7351862000       14.5068074152       10.6643162575
  O        12.5716886490       14.5827390987        9.3285390972
  O        22.8441722889        2.0423891953        5.4873482052
  O        21.6046124359        3.5918336175        6.5897556630
  O        42.0579535004       34.1371147310        7.9790005383
  O        37.9812725007       33.1349015228        5.5718027868
  O        39.2172977304       31.5746119632        6.6653720893
  O        20.3083038062        1.0395599852        6.5018955426
  O        38.0243114672       33.1851708954       10.4153948004
  O        39.2184040036       31.5831425539        9.3270818841
  O        40.6522415163       33.7693082630       10.0601727081
  O        18.2557383651        1.3760724948        7.9967151365
  O        44.6222075679       35.1005614927        6.7588332946
  O        24.2055050595       -0.0001445728        9.3207467691
  O        22.7530530135        2.0561105660       10.5827850081
  O        21.6245486494        3.5956660672        9.3422963421
  O        27.4583772201       18.6961705306        5.4913944985
  O        26.6907339129       16.9193702817        6.6718428102
  O        30.6400844344       19.3420829460        8.0608434297
  O        33.5408077838       16.3304443297        5.6574147312
  O        34.2692994970       18.1810125654        6.7383025872
  O        29.5279587782       17.0172703057        6.5804589215
  O        33.5960129893       16.2823558730       10.4009150538
  O        34.2176657377       18.2382969622        9.4170738408
  O        31.5615809682       18.3065030524       10.4173441092
  O        30.2921373139       15.1080757262        8.0770368531
  O        28.5523630370       21.0280203782        6.8230250454
  O        28.5080160702       20.9626953882        9.3301952388
  O        27.4565762429       18.6790082903       10.6617487414
  O        26.6898604014       16.9302556369        9.4201658703
  O        13.1460485747       18.6939717645       10.5860432325
  O        13.9179617330       16.9160626075        9.4041260193
  O        50.5956746885       19.3502473968        8.0203308271
  O        47.6808098116       16.3278095243       10.4179556692
  O        46.9521064682       18.1763157101        9.3242927324
  O        11.0689861642       17.0157552964        9.4895844417
  O        47.6734484475       16.3361409059        5.6519737288
  O        46.9237755634       18.2357494361        6.6622396452
  O        49.5685786696       18.3177450760        5.9820768986
  O        10.3185920912       15.1001954348        7.9971234518
  O        52.6706554876       21.0280079873        9.2418024144
  O        12.1468209235       20.8913713253        6.6732848533
  O        13.1051577057       18.6141984380        5.3261491869
  O        13.9557273437       16.9865968282        6.6651531786
  O        29.9992195544       14.4381846716       10.6663897800
  O        28.0739555779       14.6568995197        9.4897237268
  O        32.0691953770       16.8703265465        8.0866350556
  O        30.9534985865       20.9594599290       10.3298013046
  O        32.9521210288       20.5785172340        9.3269657824
  O        29.5731500042       17.0778316518        9.5749892995
  O        30.8561448232       20.8780857127        5.5929236495
  O        32.8573416089       20.5853402683        6.6501867757
  O        31.6077247624       18.2415436792        5.9214144308
  O        28.2351960259       18.6711441979        8.0722603792
  O        32.4919858141       14.2109763739        9.2503829793
  O        32.3999082207       14.2144304879        6.7442331561
  O        29.8401031707       14.4337148439        5.4902408920
  O        27.9604302144       14.5856124074        6.7529450012
  O        17.8891970328        1.9665404851       10.6628091556
  O        18.9561459815        3.5271738034        9.4080354251
  O        39.1684984948       34.1385293800        7.9971806815
  O        43.2802018532       33.0588055258       10.3317026605
  O        42.0343574571       31.5064301184        9.2415501078
  O        20.3174630034        1.0364137625        9.4801756515
  O        43.2761118898       33.1825127988        5.5748616898
  O        42.0052365263       31.5840920889        6.5829869235
  O        40.5789673337       33.7750092237        5.9358110120
  O        22.3671684797        1.3844502755        7.9979291285
  O        36.6727808000       35.0997416983        9.2333347952
  O        16.4456388093        0.0639677111        6.6681274155
  O        17.9363687382        2.0431445183        5.3264149718
  O        18.9188740950        3.5931179839        6.6658770048
  O        29.6489022548       18.8229862500        4.0768303436
  O        29.6537547857       19.2767841313       12.0780311962
  O        31.1693888246       16.1927377266        4.0796589415
  O        31.6065039472       16.1647244323       12.0906114189
  O        39.4568538898       35.2437062516        4.0020052792
  O        19.1415924129        0.0045214359       11.9905095738
  O        41.9694406415       35.1727123172        4.0871726334
  O        21.6912696588       -0.0694378502       11.8960809513
  O        51.3648969203       18.6143543420        4.0052841659
  O        10.7508465947       18.7472055860       11.9050285885
  O        50.0792979250       16.4127746893        4.0917614377
  O         9.5243467352       16.4831368012       11.9911531460
 Zr         9.2965476469       16.0529043040        6.1821649454
 Zr        49.8361868864       16.0069922672        9.7466370582
 Zr        22.0732781347        0.0297453717        6.1892735821
 Zr        42.4608996609       35.1534040723        9.8010647659
 Zr        29.5558214762       19.0564931028        6.2686655127
 Zr        29.5312389292       19.2027094868        9.8680507723
 Zr        11.0373598181       19.0523672224        9.8277092537
 Zr        11.0435497884       19.1551281705        6.2510939794
 Zr        31.3359403319       16.0583990621        9.8960938826
 Zr        31.3462636640       15.9978007575        6.2767729398
 Zr        18.6012410535       -0.0015047185        9.7635939235
 Zr        18.5064980017       -0.0082928762        6.2135661929
 Zr        12.3011782536       16.3232417294        7.9904219607
 Zr        48.6159847839       18.8329598536        8.0095392017
 Zr        20.3150211745        2.4733366640        7.9907893359
 Zr        40.6429344975       32.6867912944        7.9780292446
 Zr        28.3191606467       16.3255054481        8.0921811844
 Zr        32.6059709415       18.8391791040        7.9823052164
  H        31.0042541380       17.8499025281        1.5645950697
  H        30.1206273958       17.4217205554       13.6397926168
