     560
 i =      211, E =     -4340.4071494320
  C        11.8584822189       14.0534238592        5.7415340604
  C        12.4558248243       12.8903612079        5.0233283265
  C        11.7042155101       12.1717718190        4.0813383959
  C        12.2804684706       11.1095062756        3.3889791322
  C        13.6208926086       10.7392733848        3.6169564524
  C        14.3539298726       11.4424271712        4.5908466751
  C        13.7811439967       12.5074327806        5.2823905460
  C        14.2603135658        9.6485559307        2.8435464575
  C        14.2554676993        9.6564166311        1.4218371798
  C        13.7423180703       10.7585219771        0.6678957561
  C        49.1265533825       21.2334432666        5.8797087082
  C        48.5497075360       22.4012468985        5.1526670228
  C        49.2997475468       23.0685808195        4.1716689371
  C        48.7327741254       24.1076342423        3.4384165490
  C        47.4022044281       24.5092124982        3.6670225097
  C        46.6712621373       23.8603860077        4.6805832549
  C        47.2337495953       22.8155391892        5.4099805591
  C        46.7719996676       25.5868877712        2.8697221785
  C        46.7610762722       25.5572681338        1.4479665583
  C        47.2609602273       24.4421502317        0.7044828191
  C        14.8593148483        8.5700253872        0.7085689978
  C        14.8911790979        8.5966413774        3.5201960864
  C        49.1128500185       21.2034663957       10.1452835088
  C        48.5274763411       22.3647570541       10.8723850910
  C        49.2666189167       23.0253134623       11.8654811101
  C        48.6902815720       24.0598216836       12.5969688987
  C        47.3599410966       24.4567627603       12.3585544434
  C        46.6396089964       23.8120113944       11.3348606352
  C        47.2131884794       22.7761588027       10.6030336373
  C        46.7214703671       25.5316680226       13.1496123026
  C        46.7332445214       25.5280156560       14.5713134464
  C        47.2487327462       24.4288450273       15.3277225250
  C        40.6185465312       17.0941891784       15.3163733430
  C        40.6388319026       17.1432866906       12.5058683033
  C        11.8827380275       14.0863184086       10.2854273878
  C        12.4716735367       12.9102373575       10.9894464552
  C        11.7141623227       12.1775550880       11.9159846689
  C        12.2804342386       11.0949477517       12.5844118112
  C        13.6190044824       10.7205190175       12.3522115367
  C        14.3569028946       11.4354167228       11.3908309751
  C        13.7917564857       12.5167246211       10.7181380482
  C        14.2524619874        9.6237714001       13.1227201978
  C        14.2512984870        9.6438541845       14.5445654440
  C        13.7415890871       10.7528775013       15.2916393827
  C        22.5053717159        3.2427802162        5.7480471465
  C        23.2065207053        4.3465773809        5.0348650026
  C        24.2049951298        4.0651510988        4.0909448271
  C        24.8240077469        5.1033255712        3.4002241992
  C        24.4585301466        6.4438417281        3.6331667768
  C        23.4845280688        6.7169608976        4.6106086044
  C        22.8619445978        5.6807653661        5.3007447221
  C        25.0656805703        7.5491833800        2.8591028871
  C        25.0614615113        7.5369272964        1.4380766611
  C        24.3712427821        6.5341497092        0.6862506266
  C        38.3011659496       31.9263205072        5.8476287227
  C        37.5684825252       30.8367207988        5.1375913703
  C        36.6062307696       31.1421519755        4.1623653375
  C        35.9830580929       30.1238870776        3.4453361948
  C        36.3056524764       28.7725512485        3.6800815252
  C        37.2390452943       28.4746812500        4.6913053674
  C        37.8663783989       29.4917874492        5.4075131128
  C        35.6960630000       27.6824625371        2.8823282942
  C        35.7257444549       27.6975951666        1.4601410613
  C        36.4321849598       28.6990687820        0.7223292169
  C        25.6951899061        8.6049605921        0.7248110270
  C        25.6458616383        8.6291922986        3.5352868572
  C        38.3265711870       31.9606246349       10.1563602959
  C        37.6003596292       30.8876755174       10.8964360908
  C        36.6697812290       31.1974664849       11.9004422945
  C        36.0535129804       30.1803254273       12.6273182480
  C        36.3523562137       28.8261447980       12.3750081827
  C        37.2607628585       28.5264443284       11.3409098141
  C        37.8791245702       29.5401914397       10.6150571053
  C        35.7389110070       27.7279833010       13.1587280432
  C        35.7473355043       27.7210019993       14.5814003556
  C        36.4419170324       28.7107218646       15.3454453178
  C        46.1353022249       26.6206820817       15.2814535435
  C        46.0874976490       26.5800179860       12.4735594896
  C        22.4652947609        3.2536864981       10.2516396516
  C        23.1723119850        4.3595171365       10.9634252298
  C        24.1842356895        4.0680603319       11.8917839959
  C        24.8231304567        5.0953028915       12.5810836794
  C        24.4688188847        6.4414371215       12.3638313221
  C        23.4817402784        6.7264647921       11.4020652328
  C        22.8386376837        5.6994763678       10.7125554521
  C        25.1016176342        7.5351912719       13.1404867607
  C        25.0806395938        7.5288806170       14.5622071727
  C        24.3775665234        6.5322682224       15.3099345785
  C        26.5553367539       17.8254736683        5.7899240625
  C        25.2559968729       17.8863437238        5.0621635277
  C        25.0008823178       18.9046443380        4.1304218561
  C        23.7943632941       18.9344499150        3.4355612984
  C        22.8103615154       17.9496768198        3.6528422447
  C        23.0602519127       16.9546321809        4.6163350018
  C        24.2682181988       16.9195937779        5.3093402823
  C        21.5452183621       17.9453992810        2.8801941507
  C        21.5545823671       17.9463953107        1.4583274361
  C        22.7653837090       17.8441619685        0.7030650792
  C        34.4166371383       17.2156985820        5.9093735231
  C        35.7099982666       17.1480813463        5.1704058709
  C        35.9014651460       16.1829775814        4.1692396611
  C        37.0848450139       16.1553361740        3.4360908722
  C        38.1075878148       17.0930970310        3.6802063311
  C        37.9174724709       18.0381583447        4.7070676557
  C        36.7332330880       18.0699654582        5.4397819504
  C        39.3621931298       17.0952585006        2.8921502328
  C        39.3586454096       17.1056805467        1.4693733430
  C        38.1519583374       17.2205768486        0.7093463612
  C        20.3109377846       17.9651665689        0.7458970573
  C        20.3194000047       17.9334004873        3.5582169434
  C        34.4526540967       17.1850374711       10.1731503240
  C        35.7571284286       17.1153476081       10.8926217800
  C        35.9973536656       16.1120530951       11.8444539149
  C        37.1812342320       16.1054061269       12.5769953702
  C        38.1598477231       17.0972991601       12.3726735946
  C        37.9295518593       18.0742858845       11.3858779166
  C        36.7409882748       18.0891979463       10.6601126558
  C        39.4075228741       17.1192979913       13.1699688336
  C        39.3820520895       17.1162956920       14.5913773790
  C        38.1629372310       17.2214922096       15.3322707161
  C        35.1149891470       26.6424000584       15.2853279951
  C        35.1467799635       26.6578817445       12.4756667034
  C        26.5631934394       17.8298158149       10.3254148511
  C        25.2488714265       17.8876298355       11.0243441626
  C        24.9706166389       18.9250020798       11.9271932467
  C        23.7528185821       18.9581351719       12.6000694128
  C        22.7858105464       17.9558975914       12.3899585454
  C        23.0564743171       16.9439950048       11.4514277136
  C        24.2752861232       16.9073112288       10.7780639835
  C        21.5216933387       17.9459449178       13.1609672657
  C        21.5417696863       17.9467176735       14.5818092095
  C        22.7593727139       17.8452241581       15.3266380330
  C        14.0448372970       17.8324246289       10.2834583157
  C        15.3511150731       17.8987271349       11.0001904610
  C        15.6093768331       18.9154162960       11.9322771880
  C        16.8198057583       18.9445025011       12.6207411825
  C        17.8025185001       17.9596284483       12.3975726800
  C        17.5501732028       16.9681048261       11.4314443181
  C        16.3392202964       16.9347525666       10.7441938127
  C        19.0684462698       17.9485717190       13.1678182267
  C        19.0607085364       17.9488121016       14.5892429360
  C        17.8497844341       17.8464531882       15.3437556402
  C        46.8038412720       17.2188782774       10.1593589354
  C        45.5131726888       17.1566624984       10.9052205782
  C        45.3061180494       16.1771888287       11.8890008488
  C        44.1235971407       16.1570828936       12.6240639056
  C        43.1172560297       17.1168298131       12.3985138032
  C        43.3220326496       18.0765647124       11.3885953656
  C        44.5051225278       18.1002154756       10.6540584493
  C        41.8626649216       17.1238672098       13.1860041050
  C        41.8659951435       17.1139125221       14.6083709247
  C        43.0738267365       17.2072138888       15.3691459620
  C        20.3041831569       17.9640521642       15.3018363009
  C        20.2935986752       17.9266491596       12.4893322928
  C        46.7821203508       17.2308002024        5.8879490273
  C        45.4771869469       17.1216229037        5.1728284935
  C        45.2583051260       16.1200801304        4.2143652919
  C        44.0688326991       16.0878368829        3.4898320049
  C        43.0664341382       17.0538703853        3.7054345629
  C        43.2758628379       18.0253517666        4.7023940809
  C        44.4665834151       18.0640050642        5.4220934631
  C        41.8186659873       17.0710388293        2.9078934169
  C        41.8435599354       17.0857065954        1.4864427564
  C        43.0629868347       17.1914702118        0.7459237707
  C        46.1530191939       26.6371078717        0.7262053274
  C        46.1619803317       26.6559862466        3.5358202401
  C        14.0398023153       17.8283519290        5.7060214813
  C        15.3533439367       17.8979305213        5.0049093342
  C        15.6228717160       18.9221369802        4.0852424661
  C        16.8465123654       18.9606956080        3.4219138711
  C        17.8250618609       17.9739498318        3.6538548750
  C        17.5609318504       16.9752481393        4.6082264173
  C        16.3395281523       16.9364927174        5.2756653698
  C        19.0911483971       17.9588074872        2.8862134791
  C        19.0727889175       17.9529508801        1.4652345135
  C        17.8557047935       17.8483400725        0.7199215555
  C        28.8076467760       14.0796169770       10.3577480139
  C        28.2116344880       12.9005054298       11.0445211610
  C        28.9433459379       12.1747003633       11.9958714280
  C        28.3544245299       11.0982027628       12.6546079998
  C        27.0219703870       10.7259044574       12.3852634799
  C        26.3135228866       11.4322089400       11.3965070161
  C        26.8990470324       12.5085553789       10.7364306279
  C        26.3569537934        9.6449446250       13.1474615142
  C        26.3321670285        9.6721847667       14.5681102323
  C        26.8312528479       10.7845872746       15.3171501568
  C        32.1752523540       21.2430559460       10.1051187338
  C        32.7593881095       22.4076180317       10.8323378984
  C        32.0104544033       23.0667925478       11.8200871413
  C        32.5759085335       24.1033255166       12.5576919617
  C        33.9050274500       24.5110174408       12.3295952116
  C        34.6355578444       23.8685624637       11.3111833277
  C        34.0743210799       22.8260407208       10.5762051058
  C        34.5304589022       25.5871958941       13.1341147686
  C        34.5228817958       25.5584449631       14.5565801175
  C        34.0180424337       24.4422589367       15.2954053651
  C        25.7113059273        8.5965198727       15.2809794225
  C        25.7243857334        8.5949937845       12.4692997299
  C        32.0765753568       21.1939433246        5.8449319711
  C        32.6589605355       22.3580970994        5.1130391537
  C        31.9345558029       23.0030535927        4.0984723508
  C        32.5116635624       24.0443636274        3.3745936557
  C        33.8289821032       24.4686127044        3.6408616441
  C        34.5340161950       23.8374136262        4.6841635714
  C        33.9609580939       22.7941393385        5.4068024761
  C        34.4729461769       25.5503193574        2.8583319946
  C        34.4941154178       25.5397165605        1.4354266749
  C        34.0037956209       24.4334740442        0.6723520035
  C        40.6064447571       17.0838273645        0.7616681257
  C        40.5866401702       17.0938377691        3.5715722431
  C        28.6559065373       14.0580410271        5.8219539134
  C        28.0519531793       12.9152254995        5.0803344164
  C        28.8088028962       12.2016467170        4.1379963451
  C        28.2364189077       11.1484621867        3.4305993051
  C        26.8932428883       10.7809864582        3.6438440786
  C        26.1528195281       11.4798766429        4.6155489101
  C        26.7228061261       12.5356589019        5.3237886661
  C        26.2669077383        9.6887684489        2.8634349582
  C        26.2872640399        9.6951775967        1.4423257765
  C        26.8072846644       10.7967161564        0.6928613657
  C        18.1352682052        3.1807918120       10.3171350756
  C        17.4056267472        4.2779203191       11.0156939003
  C        16.3897785553        3.9993332745       11.9429775318
  C        15.7417560690        5.0391258712       12.6064886245
  C        16.0935045914        6.3829066404       12.3669873770
  C        17.0830219398        6.6527004030       11.4034430115
  C        17.7323826603        5.6155085874       10.7383968711
  C        15.4689711751        7.4904722111       13.1300769182
  C        15.4843027367        7.4898567654       14.5517913189
  C        16.1859753022        6.4963102489       15.3049290202
  C        42.9457043052       31.8594064830       10.0728217154
  C        43.6460111663       30.7716629740       10.8167659820
  C        44.5916883565       31.0929988983       11.8026833667
  C        45.1973642285       30.0874437619       12.5503506621
  C        44.8707454094       28.7344123316       12.3356267267
  C        43.9447472261       28.4200703904       11.3225818297
  C        43.3359497013       29.4252154352       10.5745208713
  C        45.4882879130       27.6551194481       13.1388502757
  C        45.4925557010       27.6807902107       14.5605409658
  C        44.8054642170       28.6888694770       15.3071166812
  C        14.8553516325        8.5623748941       15.2641315274
  C        14.8735910885        8.5621567034       12.4514648619
  C        42.9463821499       31.9615343296        5.8090055978
  C        43.6915370555       30.8853686383        5.0954558731
  C        44.6563621958       31.1912726920        4.1233924744
  C        45.2778034586       30.1716775043        3.4055972033
  C        44.9536831386       28.8214074039        3.6430015631
  C        44.0198833298       28.5237276432        4.6534731832
  C        43.3917087557       29.5405118687        5.3657001917
  C        45.5627432144       27.7240042707        2.8577653083
  C        45.5330847552       27.7172977390        1.4364703399
  C        44.8267837482       28.7075340457        0.6835081368
  C        35.1023501830       26.6316527673        0.7312541378
  C        35.0861117975       26.6086934455        3.5416743476
  C        18.1484098308        3.2467370408        5.7066109665
  C        17.4297206963        4.3435457309        4.9972021981
  C        16.4144167159        4.0521871392        4.0737889539
  C        15.7659842955        5.0827692455        3.3984152519
  C        16.1206157490        6.4280302761        3.6210033898
  C        17.1121165268        6.7114873426        4.5781149806
  C        17.7598819133        5.6826304505        5.2578916013
  C        15.4899413534        7.5236762764        2.8485931044
  C        15.4956696019        7.5069891313        1.4274465627
  C        16.1923504404        6.5052370812        0.6807397179
  H        10.6722125985       12.4661986267        3.9040677783
  H        11.6941932050       10.5512672236        2.6622419024
  H        15.3907992185       11.1674318142        4.7729093562
  H        14.3504991087       13.0702499778        6.0182283372
  H        13.3754414154       11.6307278149        1.2011606404
  H        50.3224611178       22.7485758440        3.9869317332
  H        49.3192087219       24.6229088577        2.6808070973
  H        45.6417555047       24.1611378402        4.8637173837
  H        46.6627149835       22.2903044032        6.1720602225
  H        47.6294791192       23.5757666785        1.2461680486
  H        14.8716136759        8.5878869865        4.6085089470
  H        50.2866019705       22.7023537796       12.0605089596
  H        49.2686014316       24.5751888448       13.3605852080
  H        45.6102808955       24.1094323439       11.1456474394
  H        46.6524176547       22.2541881390        9.8313033458
  H        47.6074324591       23.5516710490       14.7968659301
  H        40.6457864331       17.1210813744       11.4177513643
  H        48.6869675908       14.0950988228        7.7999934897
  H        10.6808889664       12.4671580575       12.0936803076
  H        11.6885805515       10.5249711952       13.2973934636
  H        15.3921058967       11.1569171063       11.2045325229
  H        14.3641074555       13.0855576579        9.9891973693
  H        13.3748003690       11.6215150123       14.7530177943
  H        47.9301242894       14.2180916245        9.7109086861
  H        47.7798925184       14.3736859660        6.4951850003
  H        49.0829392052       18.5524043461       10.8671594695
  H        10.4158146999       14.1343109504        7.9987319040
  H        24.4747354745        3.0269162219        3.9109078697
  H        25.6009699432        4.8864427187        2.6703853957
  H        23.1947759244        7.7493936051        4.7946577034
  H        22.0894259155        5.8805521760        6.0392271296
  H        23.8042157004        5.7781051005        1.2215207367
  H        36.3705678644       32.1858560351        3.9681312095
  H        35.2368575211       30.3670199697        2.6920637583
  H        37.4975700387       27.4349793729        4.8813950542
  H        38.6115163125       29.2667069044        6.1669776643
  H        36.9983617810       29.4482924904        1.2680264366
  H        25.6615592251        8.6175408065        4.6235775978
  H        36.4497512171       32.2420664896       12.1089142717
  H        35.3268516292       30.4281832355       13.3979012054
  H        37.5047730322       27.4857182379       11.1380475422
  H        38.6022745539       29.3115999298        9.8358993960
  H        37.0166078390       29.4683966938       14.8206097587
  H        46.1088333558       26.5873967467       11.3855195507
  H        44.6682144605       35.1161512771        7.8141445486
  H        24.4588096319        3.0284213937       12.0550405345
  H        25.6099938520        4.8645892949       13.2960550321
  H        23.1986368822        7.7623537276       11.2267961131
  H        22.0597111449        5.9144553493        9.9846829342
  H        23.8147406042        5.7752134578       14.7717378375
  H        44.9535617284       34.3897798314        9.6946223748
  H        44.9018488451       34.2068399517        6.4907285014
  H        40.6650222866       33.2082418757       10.8527265809
  H        23.1500508561        1.9577018909        8.0027811384
  H        25.7560466647       19.6701872407        3.9676302400
  H        23.5982279108       19.7287356352        2.7185553561
  H        22.3089448950       16.1870365189        4.7902157658
  H        24.4757570291       16.1392366232        6.0378060850
  H        23.7056895848       17.7318607813        1.2349003358
  H        35.1042602371       15.4702146844        3.9709005582
  H        37.2306733612       15.3986322388        2.6683951649
  H        38.6973104273       18.7718540891        4.9003505345
  H        36.5722083143       18.8159257549        6.2145939547
  H        37.2102505442       17.3403743544        1.2374004816
  H        20.3218204550       17.9567729292        4.6465015074
  H        35.2425282408       15.3462657619       12.0066815832
  H        37.3623517578       15.3263563095       13.3143417433
  H        38.6787649186       18.8461507704       11.2221226912
  H        36.5423021511       18.8620157512        9.9211965813
  H        37.2295845684       17.3392415369       14.7890369822
  H        35.1198391318       26.6846741840       11.3879242624
  H        28.5061515070       21.0987003174        7.8862092530
  H        25.7197217383       19.6975444041       12.0846153599
  H        23.5360861739       19.7634629996       13.2986092464
  H        22.3156410123       16.1646156506       11.2854302265
  H        24.5028075823       16.1141832382       10.0698515815
  H        23.6949168302       17.7347188800       14.7861690425
  H        28.9617646658       21.7328430128        9.7114583263
  H        29.1744610646       21.7155693693        6.5174377125
  H        32.2739178702       18.6847204083       10.8020290729
  H        27.3467456994       19.0714612228        8.0792135114
  H        14.8506891288       19.6760686711       12.1019283429
  H        17.0191280551       19.7367549996       13.3391452062
  H        18.3010707331       16.2013220279       11.2523401346
  H        16.1290865802       16.1568966734       10.0140238486
  H        16.9100460166       17.7325859849       14.8113470503
  H        46.0888439565       15.4443903973       12.0705921451
  H        43.9644879720       15.3888884155       13.3776331870
  H        42.5542769233       18.8264656612       11.2095280383
  H        44.6781984638       18.8555398020        9.8910147348
  H        44.0160153582       17.3248532444       14.8415282158
  H        20.2912998984       17.9474751767       11.4010200583
  H        46.0362638769       15.3806840439        4.0380854955
  H        43.9041021782       15.3100272955        2.7473067708
  H        42.5083529012       18.7765861669        4.8768006656
  H        44.6473057530       18.8337047979        6.1684934443
  H        43.9970569749       17.2956401374        1.2903797947
  H        46.1987418243       26.6825478291        4.6232701459
  H        52.7411278752       21.0626539101        8.1946174255
  H        14.8642982580       19.6815342495        3.9091865744
  H        17.0582990670       19.7582077574        2.7129856548
  H        18.3094073337       16.2070791105        4.7913376181
  H        16.1181971694       16.1551930811        5.9986988642
  H        16.9204224118       17.7359876082        1.2601030137
  H        52.3222728577       21.6735940529        6.2947414710
  H        52.0134321300       21.7025511929        9.4954470227
  H        49.0668944056       18.6075870225        5.2041983616
  H        13.2470964888       19.0165771220        7.9757833959
  H        29.9666021104       12.4758763161       12.2094177728
  H        28.9212917085       10.5346904377       13.3925086121
  H        25.2839940014       11.1531811206       11.1821134005
  H        26.3491229470       13.0765535135        9.9901666480
  H        27.2064634087       11.6507208504       14.7802239148
  H        30.9902813685       22.7397449935       12.0073599398
  H        31.9888424368       24.6115091988       13.3195291148
  H        35.6643539104       24.1718362226       11.1280571850
  H        34.6468166836       22.3070416769        9.8108666488
  H        33.6667331580       23.5703913632       14.7510050922
  H        25.7611702906        8.5763919939       11.3815248651
  H        30.9244991716       22.6640643569        3.8795788578
  H        31.9411503845       24.5437714277        2.5946173969
  H        35.5537417928       24.1511602247        4.8976510521
  H        34.5142268495       22.2861747997        6.1931053678
  H        33.6420194859       23.5544239348        1.1980881958
  H        40.5793191887       17.0582169584        4.6593399186
  H        32.5180061054       14.1369447540        8.1726114421
  H        29.8485025406       12.4794410052        3.9810153001
  H        28.8289224477       10.5910684264        2.7083852605
  H        25.1136199433       11.2058939569        4.7854624904
  H        26.1495286717       13.0920767026        6.0616405640
  H        27.1627964420       11.6725281305        1.2277746661
  H        33.2895427811       14.2335492472        6.3511318591
  H        33.4103866510       14.3768747174        9.5297474768
  H        32.0794891446       18.5166901045        5.1103687585
  H        30.1904493212       14.1365516748        8.0686135849
  H        16.1178963168        2.9627583218       12.1292144841
  H        14.9522112283        4.8195138175       13.3219722224
  H        17.3653549243        7.6856455485       11.2105464997
  H        18.5145301651        5.8183599533       10.0107197603
  H        16.7524704259        5.7389491584       14.7714001642
  H        44.8280838370       32.1400713930       11.9767445510
  H        45.9373216194       30.3411628610       13.3062155056
  H        43.6818409027       27.3780253122       11.1526355857
  H        42.5991588282       29.1899281445        9.8100000239
  H        44.2301264308       29.4366348592       14.7687889565
  H        14.8497952989        8.5453244942       11.3632444498
  H        44.9001286979       32.2339437366        3.9321502949
  H        46.0248961509       30.4128543894        2.6525226266
  H        43.7625964311       27.4840220182        4.8447340434
  H        42.6449457675       29.3177557473        6.1238916408
  H        44.2682833935       29.4704246527        1.2181024280
  H        35.0422318553       26.6221399634        4.6291285335
  H        36.6051510129       35.1337764213        8.1807621981
  H        16.1433658898        3.0125878320        3.9041497014
  H        14.9735543541        4.8558466751        2.6884697207
  H        17.3956066904        7.7469771059        4.7549197039
  H        18.5427589547        5.8931305603        5.9826397321
  H        16.7638578135        5.7550441249        1.2191665639
  H        36.2787022356       34.4819578833        6.2732506173
  H        36.3807675499       34.2091745869        9.4999446904
  H        40.5795855005       33.2021222747        5.1538936752
  H        17.4707429252        1.9468653280        7.9739647474
  H        28.7975785004       18.9130231179       12.3521886924
  H        28.6648295236       18.8791127060        3.8252802471
  H        30.5850319056       15.3363553950        3.8965016083
  H        32.4329966736       16.0472703328       12.2770164333
  H        18.8536502126        0.8689613813       12.3352790284
  H        40.5282511648       35.2289879392        3.9521672339
  H        42.3236014974       34.4186934473        3.5904487468
  H        22.0874006993        0.6921289935       12.3516427814
  H        11.5966310392       18.7128970347       12.3825556885
  H        52.2646640529       18.4313340015        3.6774252490
  H        49.2551474786       16.4765085380        3.5841227911
  H        10.1503531504       15.7982773727       12.2925890798
  H        50.8498734575       17.6926448894        3.9540225452
  H        10.0460395341       17.3947236301       12.0519271408
  H        20.2150123735        0.0020204555       12.0419457501
  H        39.1836262611       36.1243219497        3.6865154220
 Ni        30.4807964093       17.5520469355        2.9980414341
 Ni        30.9458829300       17.8677345793       12.7471698741
  O        10.6497440723       14.3652357734        5.4858095840
  O        12.6130340666       14.6574021122        6.5838314679
  O        49.1476296245       16.8459547511        7.9896328407
  O        50.3500948769       20.9362814050        5.6482689272
  O        48.3484480221       20.5932452465        6.6658984792
  O        11.0508599775       17.0540656697        6.5005898739
  O        50.3206719556       20.8817058245       10.4068509250
  O        48.3466090253       20.5866316622        9.3269983339
  O        49.5433405994       18.2484266112       10.0682679828
  O        12.3587821726       18.6246387425        7.9996077095
  O        48.6931395252       14.1486894979        6.7512597489
  O         8.2098316004       14.2104668422        9.3225712579
  O        10.7352610488       14.5068225952       10.6643473537
  O        12.5717221333       14.5827167130        9.3285401382
  O        22.8441787950        2.0422463029        5.4874415927
  O        21.6043820586        3.5917061972        6.5898988239
  O        42.0579089030       34.1370280279        7.9790108475
  O        37.9812739086       33.1351293474        5.5719078568
  O        39.2174291224       31.5748427772        6.6655676265
  O        20.3082430607        1.0394382929        6.5018317991
  O        38.0242221289       33.1849767197       10.4154678593
  O        39.2182440528       31.5829333407        9.3273224004
  O        40.6521672735       33.7690828089       10.0601949730
  O        18.2556494494        1.3760133351        7.9967397870
  O        44.6221742624       35.1005509739        6.7588278850
  O        24.2054878012       -0.0001250520        9.3207825312
  O        22.7529952022        2.0560433560       10.5826651968
  O        21.6241699265        3.5952792842        9.3416916300
  O        27.4537566284       18.6927711917        5.4896212383
  O        26.6887703565       16.9179923523        6.6722775938
  O        30.6349931657       19.3495777947        8.0059627042
  O        33.5378806340       16.3297398905        5.6551950682
  O        34.2674696732       18.1795061676        6.7415956353
  O        29.5277282106       17.0174569408        6.5789165566
  O        33.5906832586       16.2644641103       10.4091392400
  O        34.2637803897       18.1819233375        9.4028387263
  O        31.6474751664       18.3175240902       10.1554919601
  O        30.2893109444       15.1023052376        8.0716554204
  O        28.5509602474       21.0303205284        6.8210181278
  O        28.5090292353       20.9619412844        9.3288575209
  O        27.4569355724       18.6796939950       10.6588965465
  O        26.6893056378       16.9308171532        9.4184288684
  O        13.1461933701       18.6939609432       10.5860649115
  O        13.9178473511       16.9159934811        9.4039958501
  O        50.5956286838       19.3502582419        8.0204755756
  O        47.6824384755       16.3273465578       10.4175539035
  O        46.9510222778       18.1758293527        9.3250118915
  O        11.0689155971       17.0159194781        9.4895882317
  O        47.6739991430       16.3360004326        5.6525546590
  O        46.9245627898       18.2358969998        6.6629809782
  O        49.5685883098       18.3177713004        5.9821655196
  O        10.3186154290       15.1001830992        7.9970943829
  O        52.6707033335       21.0280464584        9.2418093578
  O        12.1468393981       20.8913995789        6.6732850136
  O        13.1048668623       18.6142705541        5.3262415950
  O        13.9555200487       16.9865156239        6.6652231584
  O        29.9953760882       14.4333976036       10.6602732593
  O        28.0694457929       14.6579879422        9.4864981601
  O        32.0734835998       16.8555533967        8.0624238584
  O        30.9551520349       20.9542579195       10.3320147539
  O        32.9555321733       20.5866466341        9.3257475982
  O        29.5685314378       17.0736296209        9.5741216516
  O        30.8586678037       20.8785114988        5.5922268630
  O        32.8582885460       20.5825356751        6.6565511885
  O        31.6069800476       18.2389103408        5.9135792621
  O        28.2314134836       18.6718930878        8.0668164747
  O        32.4938518789       14.2071069100        9.2456095580
  O        32.4011092908       14.2112980805        6.7448083341
  O        29.8331876882       14.4295805169        5.4909385849
  O        27.9573790561       14.5846291363        6.7540327956
  O        17.8891577162        1.9664949915       10.6628276774
  O        18.9561086441        3.5271861970        9.4080819597
  O        39.1684926326       34.1385656420        7.9971506155
  O        43.2801919107       33.0587663421       10.3316916846
  O        42.0343287999       31.5064343683        9.2415683884
  O        20.3173066396        1.0362827619        9.4802840386
  O        43.2761187640       33.1824806867        5.5748691552
  O        42.0052518809       31.5840589993        6.5830204245
  O        40.5790352313       33.7750015764        5.9358810080
  O        22.3670834507        1.3842589478        7.9979302567
  O        36.6727408493       35.0997199673        9.2333341679
  O        16.4456014907        0.0639673294        6.6681588046
  O        17.9363428021        2.0431530172        5.3263972245
  O        18.9188261750        3.5931291829        6.6658647445
  O        29.6093966942       18.8933035970        4.0779682017
  O        29.6880807655       19.0529574687       11.9803667337
  O        31.1370793942       16.1225418569        4.0868715182
  O        31.5119898322       16.1916696512       11.9943415532
  O        39.4568609064       35.2437198894        4.0020322499
  O        19.1415144446        0.0044767645       11.9905832052
  O        41.9695348704       35.1726286314        4.0872056788
  O        21.6912730273       -0.0694334330       11.8960251586
  O        51.3647554311       18.6143917062        4.0052820145
  O        10.7508370282       18.7472062445       11.9050438836
  O        50.0793993366       16.4127659692        4.0917471196
  O         9.5244260685       16.4831161583       11.9911589077
 Zr         9.2964878450       16.0529415175        6.1821876808
 Zr        49.8361199835       16.0068975998        9.7465906332
 Zr        22.0732104825        0.0294770429        6.1893132920
 Zr        42.4607655196       35.1531408483        9.8010035254
 Zr        29.5523966650       19.0668414875        6.2568497128
 Zr        29.5552132800       19.1950517687        9.8084851667
 Zr        11.0371969411       19.0524557224        9.8277001309
 Zr        11.0432654561       19.1552251855        6.2511688870
 Zr        31.3365998672       16.0571142855        9.8392094690
 Zr        31.3503875924       15.9921552605        6.2737962117
 Zr        18.6010618526       -0.0018557938        9.7636713005
 Zr        18.5063987791       -0.0084456582        6.2134898307
 Zr        12.3008672352       16.3232444668        7.9904596556
 Zr        48.6158161189       18.8330004552        8.0098492627
 Zr        20.3146585065        2.4729107750        7.9907299727
 Zr        40.6427319578       32.6865543837        7.9781199748
 Zr        28.3146731860       16.3246855090        8.0881013318
 Zr        32.6080137198       18.8289328292        8.0156948277
  H        31.3827355090       18.0526427655        1.8965944092
  H        30.7031710314       17.8102554738       14.2409565452
