     578
 i =      132, E =     -4812.1797764254
  C        11.8586890436       14.0535817187       13.7364762583
  C        12.4562326844       12.8906037997       13.0181202341
  C        11.7045535584       12.1717022456       12.0764518974
  C        12.2809354813       11.1095032577       11.3840748056
  C        13.6214913498       10.7397204811       11.6118719683
  C        14.3546634768       11.4432899665       12.5853265514
  C        13.7817676454       12.5082740225       13.2768232968
  C        14.2610569624        9.6490520605       10.8385055456
  C        14.2566004342        9.6570456084        9.4168059089
  C        13.7435395292       10.7592223264        8.6629039392
  C        49.1268362809       21.2332737007       13.8745513366
  C        48.5500623788       22.4011984012       13.1474551330
  C        49.3001592053       23.0686826295       12.1666237364
  C        48.7332069198       24.1078197628       11.4334357567
  C        47.4025904424       24.5092793525       11.6619208232
  C        46.6715397458       23.8602137091       12.6752322765
  C        47.2340177631       22.8153145914       13.4045738243
  C        46.7723354525       25.5869778820       10.8646560093
  C        46.7613761185       25.5574034799        9.4428946997
  C        47.2613647101       24.4423262201        8.6994141335
  C        14.8605113201        8.5706742705        8.7035670172
  C        14.8916079000        8.5969929701       11.5151773037
  C        49.1131769470       21.2034770206        2.1504725858
  C        48.5277539505       22.3647730007        2.8777030202
  C        49.2670465432       23.0256800175        3.8704325450
  C        48.6906812962       24.0602350273        4.6018650933
  C        47.3601702182       24.4567704835        4.3637907746
  C        46.6396588263       23.8116441051        3.3404814903
  C        47.2132562896       22.7757384359        2.6087288026
  C        46.7217258168       25.5317612139        5.1547864902
  C        46.7335420461       25.5281819087        6.5764857123
  C        47.2490581993       24.4290039218        7.3328642550
  C        40.6368727322       17.1362658860        7.3258007090
  C        40.6585706757       17.1674414264        4.5169305136
  C        11.8830208475       14.0865935562        2.2905821520
  C        12.4724176996       12.9107751751        2.9948863680
  C        11.7148822897       12.1774877857        3.9208899791
  C        12.2814948003       11.0950353240        4.5893137011
  C        13.6203525642       10.7214451185        4.3575677196
  C        14.3583373539       11.4370767247        3.3968355582
  C        13.7928898127       12.5182518347        2.7241613374
  C        14.2539866321        9.6246894945        5.1279665731
  C        14.2528620000        9.6447193316        6.5498047956
  C        13.7430467108       10.7537073077        7.2968584048
  C        22.5119728169        3.2444437019       13.7475692725
  C        23.2275235944        4.3496832754       13.0469260049
  C        24.2236706588        4.0680761086       12.1003272854
  C        24.8522816704        5.1064286242       11.4176916588
  C        24.5009541377        6.4489756016       11.6617906432
  C        23.5327356043        6.7222966033       12.6450994176
  C        22.8992532696        5.6855058456       13.3258595436
  C        25.1104913216        7.5535286498       10.8854151453
  C        25.0821603560        7.5456408596        9.4637417343
  C        24.3727582230        6.5508389444        8.7184124991
  C        38.3029442880       31.9294555615       13.8439371090
  C        37.5749133146       30.8393595436       13.1346593136
  C        36.6181203457       31.1413636596       12.1536427368
  C        36.0035871544       30.1195510913       11.4353156211
  C        36.3309145398       28.7709127935       11.6768879414
  C        37.2574799217       28.4764669255       12.6947483419
  C        37.8764839954       29.4969077484       13.4115585263
  C        35.7315854057       27.6778974439       10.8795339503
  C        35.7651766027       27.6924940659        9.4583356355
  C        36.4720644092       28.6944538621        8.7213937979
  C        25.7134785785        8.6099682604        8.7426426835
  C        25.7127524123        8.6265993494       11.5548467374
  C        38.3288846088       31.9622174044        2.1612315784
  C        37.6080774708       30.8889980949        2.9027517983
  C        36.6826156053       31.1970216846        3.9116071098
  C        36.0743096802       30.1778138167        4.6414871853
  C        36.3771156201       28.8254646246        4.3856036364
  C        37.2795679498       28.5275186587        3.3462637609
  C        37.8902818932       29.5431317450        2.6178836315
  C        35.7712413927       27.7255698466        5.1697775023
  C        35.7853021455       27.7171422425        6.5916436376
  C        36.4813449724       28.7065190709        7.3548511044
  C        46.1355371903       26.6208220386        7.2866092704
  C        46.0876559878       26.5800345344        4.4787132917
  C        22.4604680135        3.2551924567        2.2623758721
  C        23.1551427229        4.3636131617        2.9856016848
  C        24.1576514924        4.0760449484        3.9253418793
  C        24.7869099368        5.1053036810        4.6213027641
  C        24.4338560654        6.4512905109        4.3991199917
  C        23.4541230802        6.7323448274        3.4282797978
  C        22.8199208420        5.7031170806        2.7332218651
  C        25.0685070543        7.5477832201        5.1722321424
  C        25.0614090068        7.5424051658        6.5948597670
  C        24.3609608301        6.5506480225        7.3518068801
  C        26.6215342035       17.8598377085       13.7791216099
  C        25.3125384470       17.9041803226       13.0521688656
  C        25.0500247028       18.9079735202       12.1065188595
  C        23.8375732962       18.9303405568       11.4190109851
  C        22.8502682328       17.9520317086       11.6568356740
  C        23.1089916440       16.9708991330       12.6320424702
  C        24.3238866805       16.9436214783       13.3164084821
  C        21.5762811948       17.9401462845       10.8934951330
  C        21.5755469823       17.9186964364        9.4712656581
  C        22.7811099972       17.7962534471        8.7103841873
  C        34.4404993254       17.1954930985       13.9178396318
  C        35.7319406886       17.1509387916       13.1677742887
  C        35.9408624373       16.1791858499       12.1767652491
  C        37.1201036538       16.1698375215       11.4369574836
  C        38.1234799205       17.1298793201       11.6713570398
  C        37.9173839783       18.0828017518       12.6865060689
  C        36.7343708980       18.0983231411       13.4219505091
  C        39.3788644024       17.1380025634       10.8873666111
  C        39.3766100375       17.1522360224        9.4661110410
  C        38.1703236629       17.2716025470        8.7064577701
  C        20.3289415591       17.9354163204        8.7629326137
  C        20.3518166392       17.9430221292       11.5762239968
  C        34.4788053216       17.2452048769        2.1840005574
  C        35.7838184676       17.1708337138        2.9052109698
  C        36.0022469138       16.1803842845        3.8740761212
  C        37.1873939243       16.1629015406        4.6039261882
  C        38.1817674448       17.1349138949        4.3823484471
  C        37.9704826109       18.1003773182        3.3808871863
  C        36.7827685800       18.1229439578        2.6545396651
  C        39.4271552216       17.1532375834        5.1796770417
  C        39.4013010266       17.1603895174        6.6003487777
  C        38.1818315390       17.2733333646        7.3399119448
  C        35.1557617720       26.6374023285        7.2953989540
  C        35.1785664611       26.6565211715        4.4863569697
  C        26.5682275047       17.8232733030        2.3304886825
  C        25.2522926256       17.8707485567        3.0364231540
  C        24.9864943993       18.8798461446        3.9740088514
  C        23.7688384055       18.9065007439        4.6480888018
  C        22.7880590575       17.9237219881        4.4075373736
  C        23.0476109947       16.9397067033        3.4366678022
  C        24.2662410036       16.9113041378        2.7610647459
  C        21.5250583712       17.9064754618        5.1812228203
  C        21.5494979740       17.8999052951        6.6025959139
  C        22.7687171921       17.7871442066        7.3441410789
  C        14.0459367272       17.8287764506        2.2940157503
  C        15.3496133888       17.8856124882        3.0200991710
  C        15.6055615436       18.8891773374        3.9674596320
  C        16.8139871064       18.9100032285        4.6611262752
  C        17.8002936162       17.9300763441        4.4293412732
  C        17.5490656549       16.9506303781        3.4499879199
  C        16.3400882412       16.9251995611        2.7579127005
  C        19.0691832717       17.9137042177        5.1981587710
  C        19.0682022111       17.9123673186        6.6205263630
  C        17.8614411564       17.8139199810        7.3822214075
  C        46.8073776208       17.2197508723        2.1644212125
  C        45.5203028968       17.1620857561        2.9127950977
  C        45.3159072814       16.1877177815        3.9017078811
  C        44.1363031107       16.1747242314        4.6406039750
  C        43.1331096042       17.1361915065        4.4111382992
  C        43.3350780222       18.0905606989        3.3961870780
  C        44.5153174087       18.1075836712        2.6584996528
  C        41.8807205156       17.1505788552        5.1984890133
  C        41.8847927871       17.1493654851        6.6198745792
  C        43.0926497800       17.2430874597        7.3804307816
  C        20.3152724293       17.9249105784        7.3281781675
  C        20.2928629926       17.8937183560        4.5152989982
  C        46.7855879603       17.2307582018       13.8853773393
  C        45.4815822163       17.1253065649       13.1724977377
  C        45.2625334298       16.1300320073       12.2082215251
  C        44.0743397743       16.1067657945       11.4824288326
  C        43.0764814544       17.0755147234       11.7045468466
  C        43.2849592143       18.0389457659       12.7089023410
  C        44.4744010596       18.0689136667       13.4294083782
  C        41.8321743474       17.1037853363       10.9057880998
  C        41.8601484404       17.1239148494        9.4852074567
  C        43.0810300712       17.2282746451        8.7467976361
  C        46.1533372159       26.6372696979        8.7211498792
  C        46.1623049885       26.6560430203       11.5307928249
  C        14.0455243771       17.8321279315       13.7040382711
  C        15.3667401492       17.9076767928       13.0142043391
  C        15.6394352400       18.9236553900       12.0860357572
  C        16.8684284359       18.9620500855       11.4313357435
  C        17.8522444801       17.9836629988       11.6791431570
  C        17.5866032504       16.9969525695       12.6459611453
  C        16.3595675554       16.9579770237       13.3040998216
  C        19.1191148591       17.9594635288       10.9096615608
  C        19.0941391368       17.9345617014        9.4882601892
  C        17.8740568715       17.8237556342        8.7481700031
  C        28.8123085719       14.0945436407        2.3984935941
  C        28.2015644392       12.9163597441        3.0844310289
  C        28.9359104225       12.1611662079        4.0100893998
  C        28.3420102768       11.0806245296        4.6580156177
  C        26.9995640748       10.7342360605        4.4050546412
  C        26.2856040069       11.4709910552        3.4433313771
  C        26.8783939207       12.5501113642        2.7924445593
  C        26.3334312396        9.6527676738        5.1667338379
  C        26.3279120273        9.6758920001        6.5873898002
  C        26.8543520814       10.7793330997        7.3321652588
  C        32.1772286796       21.2414921221        2.1482810599
  C        32.7744071664       22.4075371588        2.8677237404
  C        32.0278057136       23.0844247802        3.8441594385
  C        32.6002069909       24.1226572816        4.5731113238
  C        33.9344660094       24.5116009994        4.3454818295
  C        34.6633805586       23.8533253388        3.3373029939
  C        34.0933075078       22.8095890543        2.6105937618
  C        34.5655466662       25.5857387393        5.1457021880
  C        34.5618531850       25.5551594987        6.5672001452
  C        34.0536867398       24.4395740515        7.3048916397
  C        25.7078254884        8.6050665211        7.3080259565
  C        25.6879727602        8.6066340324        4.4949010223
  C        32.1043574258       21.2257568596       13.8780892946
  C        32.6986342276       22.3736627369       13.1292414634
  C        31.9678670844       23.0300883234       12.1271235514
  C        32.5503971680       24.0592598237       11.3908982582
  C        33.8773915215       24.4616242407       11.6386847356
  C        34.5914642658       23.8174951926       12.6671759639
  C        34.0135464815       22.7831016068       13.3987251440
  C        34.5189673056       25.5428355278       10.8557164722
  C        34.5374332017       25.5333272316        9.4339242159
  C        34.0413598626       24.4293649440        8.6713908861
  C        40.6241133885       17.1276424444        8.7597077141
  C        40.6006289279       17.1299235548       11.5691762906
  C        28.7473481572       14.0709640854       13.8134997900
  C        28.1355530753       12.9268231821       13.0663138062
  C        28.8832516632       12.2179549129       12.1130817211
  C        28.3085499558       11.1573699610       11.4150821620
  C        26.9692976942       10.7803688079       11.6454293686
  C        26.2381009219       11.4797815859       12.6228393125
  C        26.8123685155       12.5396728651       13.3233426107
  C        26.3318148790        9.6845159165       10.8761802569
  C        26.3273941818        9.6916022152        9.4549886139
  C        26.8500921352       10.7865099082        8.6975034042
  C        18.1353388950        3.1809149926        2.3222292200
  C        17.4059532403        4.2781675363        3.0207539200
  C        16.3905927338        3.9997782617        3.9486566646
  C        15.7428718029        5.0397457858        4.6121810327
  C        16.0944268183        6.3835074652        4.3721777045
  C        17.0832976560        6.6530426712        3.4078761629
  C        17.7323738361        5.6157205534        2.7427934754
  C        15.4702453212        7.4912428649        5.1352572927
  C        15.4856265117        7.4905906536        6.5569698983
  C        16.1870712073        6.4969214744        7.3101752265
  C        42.9459046307       31.8594026138        2.0780102492
  C        43.6462147588       30.7718046934        2.8219554128
  C        44.5919494670       31.0930811453        3.8078608430
  C        45.1975950146       30.0875048306        4.5555142597
  C        44.8709063865       28.7344693325        4.3408208409
  C        43.9448577374       28.4201773138        3.3277985339
  C        43.3360789901       29.4253419114        2.5797685757
  C        45.4885095331       27.6551815103        5.1440002870
  C        45.4927825716       27.6809116343        6.5656848212
  C        44.8056945533       28.6889640352        7.3122982538
  C        14.8568072943        8.5631662871        7.2693412618
  C        14.8749982773        8.5630507306        4.4566795756
  C        42.9464734594       31.9614498539       13.8038719450
  C        43.6916315696       30.8854132534       13.0903620576
  C        44.6563607713       31.1913075923       12.1181721982
  C        45.2778504314       30.1717160404       11.4004505148
  C        44.9539181091       28.8214033401       11.6379586858
  C        44.0202404487       28.5237481253       12.6485595902
  C        43.3919901520       29.5405138994       13.3607324605
  C        45.5630010943       27.7240289882       10.8527284769
  C        45.5333486734       27.7174106903        9.4314361499
  C        44.8269876909       28.7076137758        8.6784822825
  C        35.1445969884       26.6254259837        8.7300661913
  C        35.1269032647       26.6023385684       11.5397168949
  C        18.1484887351        3.2469233519       13.7015177902
  C        17.4297480266        4.3437644977       12.9923941732
  C        16.4148669586        4.0524381912       12.0684787843
  C        15.7665453648        5.0830489193       11.3930680843
  C        16.1208221760        6.4283334535       11.6161293320
  C        17.1117037177        6.7117479046       12.5739068042
  C        17.7593859490        5.6828690011       13.2536986529
  C        15.4904840173        7.5240585624       10.8436208116
  C        15.4965643878        7.5074879857        9.4224841435
  C        16.1932439932        6.5057294730        8.6757810176
  H        10.6724167847       12.4658421896       11.8994646982
  H        11.6946298308       10.5509943681       10.6575671723
  H        15.3916844840       11.1686780809       12.7670815899
  H        14.3511938658       13.0715796067       14.0122285803
  H        13.3764683399       11.6313050187        9.1962453765
  H        50.3229287461       22.7487762329       11.9820003723
  H        49.3197384986       24.6232242453       10.6759896674
  H        45.6419606764       24.1607940160       12.8582469373
  H        46.6629183100       22.2898992433       14.1664865074
  H        47.6299282447       23.5759665485        9.2411094016
  H        14.8716880022        8.5881582225       12.6034790920
  H        50.2871774334       22.7030112383        4.0651846525
  H        49.2691211967       24.5758655045        5.3652136580
  H        45.6101608466       24.1086824409        3.1515843009
  H        46.6523574582       22.2534087577        1.8373308697
  H        47.6078374285       23.5518875314        6.8019611287
  H        40.6662035720       17.1361558230        3.4291260782
  H        48.6870537177       14.0949245978       15.7949412941
  H        10.6813531245       12.4664450787        4.0981551369
  H        11.6896684210       10.5245328431        5.3018962796
  H        15.3937992435       11.1592739287        3.2109614782
  H        14.3652007150       13.0877261369        1.9956888705
  H        13.3762021966       11.6222934932        6.7581820450
  H        47.9302242293       14.2181672678        1.7158592804
  H        47.7800584470       14.3735141899       14.4900485915
  H        49.0841736905       18.5527155666        2.8725589313
  H        10.4159581943       14.1342694563        0.0036708593
  H        24.4830096000        3.0290242700       11.9097289821
  H        25.6246955530        4.8871842909       10.6836830030
  H        23.2535982788        7.7556617149       12.8402507356
  H        22.1295792198        5.8874160072       14.0668345617
  H        23.8069853212        5.7980215942        9.2595311610
  H        36.3811869276       32.1841529348       11.9562123246
  H        35.2613472035       30.3566700457       10.6762995834
  H        37.5171563636       27.4377467696       12.8882918508
  H        38.6179067923       29.2777777023       14.1762135412
  H        37.0381338086       29.4433359549        9.2676302766
  H        25.7449683630        8.6124500898       12.6428002735
  H        36.4611636528       32.2410757317        4.1211615733
  H        35.3513127851       30.4217105417        5.4167266330
  H        37.5245169233       27.4873450111        3.1418927574
  H        38.6098934068       29.3182605244        1.8344983861
  H        37.0556509163       29.4641815158        6.8295320109
  H        46.1089235273       26.5873283495        3.3906723357
  H        44.6681095388       35.1160255712       15.8088370348
  H        24.4343307222        3.0374130500        4.0917265557
  H        25.5679728892        4.8756837134        5.3429628495
  H        23.1702970680        7.7672209780        3.2480916343
  H        22.0476513010        5.9165700126        1.9978014262
  H        23.7854183974        5.7981443684        6.8205197912
  H        44.9534473053       34.3900489852        1.7000009506
  H        44.9014492549       34.2067203375       14.4854149479
  H        40.6655428409       33.2086324954        2.8580006101
  H        23.1507078000        1.9572586953        0.0102405030
  H        25.8095035580       19.6680657661       11.9345207037
  H        23.6362708289       19.7166129434       10.6942499231
  H        22.3579544192       16.2075025646       12.8251919028
  H        24.5346203610       16.1739418306       14.0554077114
  H        23.7209164869       17.6782896685        9.2419507434
  H        35.1638984257       15.4392924076       11.9992398576
  H        37.2825384532       15.4078716455       10.6776528673
  H        38.6848260679       18.8318448757       12.8707147910
  H        36.5574811620       18.8471476098       14.1906820045
  H        37.2308247692       17.3913619383        9.2382405581
  H        20.3591834596       17.9832672870       12.6640732889
  H        35.2232621612       15.4422746308        4.0504355236
  H        37.3574142493       15.3923482503        5.3527933071
  H        38.7334175408       18.8562915088        3.2064753034
  H        36.5953430236       18.8850562385        1.9017127957
  H        37.2512336930       17.3927610536        6.7925497817
  H        35.1473452270       26.6844718398        3.3988072967
  H        28.5043123009       21.0742952490       15.9679825308
  H        25.7467638745       19.6361939435        4.1552104357
  H        23.5612333046       19.6939351324        5.3694838240
  H        22.2977544867       16.1749167067        3.2448140708
  H        24.4838591832       16.1408063204        2.0251790566
  H        23.6992081006       17.6628094415        6.7980874636
  H        29.0127295309       21.7125556535        1.7632457798
  H        29.1752772609       21.7296022016       14.6252072473
  H        32.1088529919       18.5529376441        2.9844459668
  H        27.3694012223       19.0230647954        0.0845474180
  H        14.8470894862       19.6484114504        4.1446504664
  H        17.0091789487       19.6945017972        5.3891281571
  H        18.3005289650       16.1864576160        3.2621343049
  H        16.1342746572       16.1559694102        2.0173826843
  H        16.9188392125       17.6976336521        6.8552762371
  H        46.0981877922       15.4546093821        4.0836885121
  H        43.9762742329       15.4116427125        5.3990985268
  H        42.5674260781       18.8402993215        3.2163065207
  H        44.6893744542       18.8580951098        1.8910782801
  H        44.0350274868       17.3583953049        6.8526025829
  H        20.2864607289       17.9220670849        3.4271394306
  H        46.0392914920       15.3902638847       12.0284894497
  H        43.9067559742       15.3354829754       10.7338279857
  H        42.5185985676       18.7904048810       12.8870616253
  H        44.6580215240       18.8323350785       14.1813750504
  H        44.0145247344       17.3310060165        9.2924425665
  H        46.1990483829       26.6825197111       12.6182440635
  H        52.7412023487       21.0626707835        0.1997844384
  H        14.8783258274       19.6768022176       11.8943385503
  H        17.0790792738       19.7526953459       10.7143845950
  H        18.3378781424       16.2355096120       12.8451723007
  H        16.1389071228       16.1832733105       14.0343961838
  H        16.9409314343       17.7150618704        9.2927131597
  H        52.3226118511       21.6733927042       14.2891709043
  H        52.0133949821       21.7022268564        1.5007727694
  H        49.0674056717       18.6077223201       13.1990706658
  H        13.2477153759       19.0164650867       15.9722976665
  H        29.9696369244       12.4364496801        4.2071019463
  H        28.9135890132       10.4920781489        5.3725268720
  H        25.2479646212       11.2128822572        3.2417535858
  H        26.3272761801       13.1401442918        2.0641753420
  H        27.2433375618       11.6343925975        6.7865364471
  H        31.0027432238       22.7699963023        4.0259000334
  H        32.0163385973       24.6473958745        5.3262530349
  H        35.6959849185       24.1448592195        3.1563030080
  H        34.6607500538       22.2751979402        1.8520355240
  H        33.6953044924       23.5731928232        6.7564931257
  H        25.7134162094        8.5888910121        3.4067815991
  H        30.9456664206       22.7149601224       11.9309213497
  H        31.9761321348       24.5698882554       10.6208947811
  H        35.6188859050       24.1169337959       12.8638112225
  H        34.5689827206       22.2637950264       14.1763073493
  H        33.6732243635       23.5547975135        9.2000685976
  H        40.5913672972       17.0897418352       12.6567280213
  H        32.5081163921       14.1484921692        0.2649362693
  H        29.9200083545       12.5063621410       11.9504478740
  H        28.8979104781       10.5961361830       10.6926523261
  H        25.2023710079       11.2013274862       12.8067673704
  H        26.2468817735       13.0929761738       14.0696419475
  H        27.2316809816       11.6471871427        9.2394158838
  H        33.3109338414       14.2310366798       14.4641618142
  H        33.4089935855       14.4162453835        1.6044385730
  H        32.1290975238       18.5170653220       13.2326016803
  H        30.2191452825       14.1882565549        0.0834470447
  H        16.1187445591        2.9632610277        4.1353057568
  H        14.9536334232        4.8202998469        5.3280549510
  H        17.3652414589        7.6859647840        3.2143050388
  H        18.5139249914        5.8183819915        2.0144317816
  H        16.7534344219        5.7394244008        6.7767001097
  H        44.8284459475       32.1401299099        3.9819243753
  H        45.9376117374       30.3411643387        5.3113416695
  H        43.6818975498       27.3781441029        3.1578554198
  H        42.5992399497       29.1899974211        1.8153193159
  H        44.2302568176       29.4366663913        6.7739905359
  H        14.8510373064        8.5462219222        3.3684662636
  H        44.9000337584       32.2339715933       11.9268166319
  H        46.0248539686       30.4128889298       10.6472949934
  H        43.7630941126       27.4840349723       12.8399712909
  H        42.6453134490       29.3176693995       14.1189901532
  H        44.2684011349       29.4704480214        9.2130587804
  H        35.0819196729       26.6156333871       12.6270756920
  H        36.6048264543       35.1340004268        0.1857760414
  H        16.1440169648        3.0128386802       11.8985058895
  H        14.9744430454        4.8561295815       10.6827574786
  H        17.3947008779        7.7472753658       12.7512559536
  H        18.5418071747        5.8933421237       13.9789426232
  H        16.7644506333        5.7553205635        9.2142204057
  H        36.2779159195       34.4828689570       14.2680362898
  H        36.3798349220       34.2096633140        1.5051461396
  H        40.5799895135       33.2021952130       13.1486699578
  H        17.4706608540        1.9473891418       15.9689822413
  H        28.8849293705       19.2194374269        4.4236864758
  H        29.9968594073       19.7314389319       11.6514716191
  H        31.9373533802       15.7938718791       11.6086592913
  H        31.2493366398       15.6537847462        4.5334540151
  H        28.2645132733       17.4818559293        6.8085111042
  H        29.5856397915       15.1861113455        6.5946820920
  H        31.7800207881       19.8022726487        9.5365306012
  H        33.1422132319       16.8693323010        9.4880655498
  H        28.9303155452       16.6563101454        9.2880706077
  H        18.8527357529        0.8688844476        4.3402703900
  H        40.5277777367       35.2291851977       11.9470156765
  H        42.3234418160       34.4181531820       11.5859663100
  H        22.0878347828        0.6914492464        4.3569607996
  H        11.5967398446       18.7132378905        4.3877189240
  H        52.2648342502       18.4309809031       11.6720876661
  H        49.2546174403       16.4773127003       11.5797716870
  H        10.1504741909       15.7982601866        4.2979092429
  H        50.8499203844       17.6924743952       11.9491469560
  H        10.0462174372       17.3945543348        4.0570695907
  H        20.2137725776        0.0020371012        4.0472571449
  H        39.1833688659       36.1243263406       11.6812590199
  H        32.2072996979       18.5584406678        6.9334735925
 Ni        30.8621633829       17.7189218519       10.8261613534
 Ni        31.1601055267       16.4205673203        7.9967403894
 Ni        29.8404216872       18.9382793965        8.1605397578
 Ni        30.2640781789       17.5736800841        5.3289743231
  O        10.6499415513       14.3650967573       13.4806781313
  O        12.6131958424       14.6574951531       14.5787711474
  O        49.1481213747       16.8459583445       15.9846032526
  O        50.3502812130       20.9359270360       13.6429316222
  O        48.3485699106       20.5933839936       14.6607776157
  O        11.0516477821       17.0539178395       14.4955375572
  O        50.3209893441       20.8816872405        2.4119688285
  O        48.3467464384       20.5868300878        1.3322320860
  O        49.5438656947       18.2484329863        2.0733802151
  O        12.3592593584       18.6246785328        0.0047958401
  O        48.6932719276       14.1485643617       14.7461969472
  O         8.2099462682       14.2102822632        1.3275791578
  O        10.7354370030       14.5066905868        2.6694495924
  O        12.5718562376       14.5828137160        1.3335911523
  O        22.8447696216        2.0434698340       13.4818024550
  O        21.6059571004        3.5927662085       14.5840839698
  O        42.0581127263       34.1372356394       15.9738468054
  O        37.9819427434       33.1378708687       13.5674575483
  O        39.2184459015       31.5764275897       14.6618625809
  O        20.3083499596        1.0394951881       14.4968787597
  O        38.0248993708       33.1861304889        2.4201161123
  O        39.2193845357       31.5840709083        1.3312979677
  O        40.6522498803       33.7693176390        2.0653633723
  O        18.2555458228        1.3764889695        0.0018691062
  O        44.6221973952       35.1005557060       14.7536181856
  O        24.2053436534        0.0000366949        1.3259511268
  O        22.7529703227        2.0575638790        2.5888625580
  O        21.6244688474        3.5961766579        1.3476810828
  O        27.4915506946       18.7511243820       13.4927289585
  O        26.7613687306       16.9286923533       14.6465795022
  O        30.6393470523       19.3563898132        0.0762389641
  O        33.5911007325       16.2739394648       13.6643577120
  O        34.2761481109       18.1685021558       14.7317139471
  O        29.5723738346       17.0585384275       14.5688442089
  O        33.6217332698       16.3289741461        2.4172198815
  O        34.3063910302       18.2474097582        1.4119301004
  O        31.6530572444       18.3180348620        2.1601705941
  O        30.3196613516       15.1538358984        0.0945133242
  O        28.5543058993       21.0297378438       14.8973769111
  O        28.5114127363       20.9553215403        1.4157802333
  O        27.4531750333       18.6771800101        2.6654870714
  O        26.6915480992       16.9258935563        1.4210841921
  O        13.1482575685       18.6930566011        2.5924683214
  O        13.9191956488       16.9162273021        1.4101327357
  O        50.5963479681       19.3502838269        0.0254733266
  O        47.6844298956       16.3267031841        2.4220890073
  O        46.9526784939       18.1759362001        1.3291617788
  O        11.0698262339       17.0155551558        1.4947745417
  O        47.6762001234       16.3355622876       13.6480723748
  O        46.9279953893       18.2358236113       14.6599418259
  O        49.5688326651       18.3177064039       13.9771125285
  O        10.3187053294       15.1001292342        0.0021451076
  O        52.6707909425       21.0279261064        1.2469270069
  O        12.1468713241       20.8912306365       14.6681192459
  O        13.1080459746       18.6137000196       13.3205467951
  O        13.9572496575       16.9870277116       14.6602812599
  O        29.9946665301       14.4442122491        2.7399581161
  O        28.0894451605       14.6524718685        1.5023022170
  O        32.1411465704       16.8505970515        0.0955215815
  O        30.9650284220       20.9533571446        2.4134086016
  O        32.9456375073       20.6038976030        1.3427435167
  O        29.5671413857       17.0717630456        1.5818721965
  O        30.8729484420       20.9476539702       13.6584198679
  O        32.8773572812       20.5867105435       14.6637472001
  O        31.6889851210       18.2552673385       14.0562484030
  O        28.2577534058       18.6322873746        0.0831499441
  O        32.4930318543       14.2135067636        1.3381134484
  O        32.4065745973       14.2124885988       14.8194987097
  O        29.9187612321       14.4356372155       13.4864219604
  O        28.0371914167       14.5868846488       14.7467002295
  O        17.8892284521        1.9666352469        2.6679167313
  O        18.9562746877        3.5271314120        1.4130757434
  O        39.1686704989       34.1388535780        0.0022628210
  O        43.2802384764       33.0589560766        2.3367617865
  O        42.0345683901       31.5064741632        1.2467096214
  O        20.3175964034        1.0366586912        1.4853300235
  O        43.2760582062       33.1825802783       13.5698043310
  O        42.0052949063       31.5841160431       14.5778873382
  O        40.5790793377       33.7750104229       13.9307020018
  O        22.3672238899        1.3845810147        0.0029713247
  O        36.6727461005       35.0998432873        1.2383591981
  O        16.4455285843        0.0642974459       14.6631825919
  O        17.9364731197        2.0433940324       13.3212603464
  O        18.9191161194        3.5931232976       14.6608071169
  O        29.8688579440       18.8977861171       12.1438479806
  O        29.7395747404       18.9760006552        4.0185999864
  O        31.3423435539       16.3464035511       12.1485666973
  O        31.3424454550       16.4790159048        4.0147889630
  O        32.2259669283       16.5659585507        9.5807675374
  O        29.7295599243       17.2105492814        9.2314616749
  O        30.3430028816       15.7694600711        6.4113171848
  O        31.3184181937       18.1699410097        6.9869299870
  O        30.8840090100       19.4925019033        9.7411871981
  O        28.6936019364       18.3218883542        6.5723972847
  O        39.4567522972       35.2437952396       11.9968312693
  O        19.1407473842        0.0043964645        3.9956981885
  O        41.9696496294       35.1726361969       12.0821162010
  O        21.6911495459       -0.0695680106        3.9009556825
  O        51.3650705590       18.6142547244       12.0002669998
  O        10.7510267755       18.7472250476        3.9100245719
  O        50.0792599712       16.4127959749       12.0866552486
  O         9.5246095203       16.4830615648        3.9963109226
 Zr         9.2968186346       16.0528229281       14.1774134962
 Zr        49.8364844513       16.0066060172        1.7514058149
 Zr        22.0729652424        0.0291018477       14.1841320509
 Zr        42.4606193442       35.1526661468        1.8059325875
 Zr        29.5944240178       19.0858534178       14.2725079164
 Zr        29.5684699307       19.1676498033        1.8705843298
 Zr        11.0380442139       19.0520642662        1.8327709687
 Zr        11.0440367312       19.1548914599       14.2458932344
 Zr        31.3517599037       16.1105422566        1.8927227189
 Zr        31.3912647781       16.0137192721       14.2946450844
 Zr        18.6006685741       -0.0018970062        1.7683965746
 Zr        18.5060495475       -0.0082218148       14.2085587003
 Zr        12.3020062119       16.3237705205       15.9851378442
 Zr        48.6167961621       18.8332892834        0.0152187017
 Zr        20.3145605334        2.4726303394       15.9853383806
 Zr        40.6430535552       32.6863613150       15.9731586353
 Zr        28.3462776520       16.3390966590        0.0858918217
 Zr        32.6207642977       18.8346062717        0.0687142954
  O        28.6312154526       14.2898749351        8.3324302936
  H        29.0852184161       13.8452577903        9.0691231054
  H        27.7653884863       13.8501726588        8.2891038941
  O        28.0088636482       20.0781276601        8.3432964892
  H        27.7388303728       19.5240323941        7.5602966006
  H        27.4417188692       19.8304435616        9.0936569689
