     575
 i =      139, E =     -4794.9049986602
  C        11.8590165414       14.0534520679       13.7364997401
  C        12.4565447882       12.8907027054       13.0180829508
  C        11.7047139319       12.1713399408       12.0768480841
  C        12.2811694572       11.1091979956       11.3844918909
  C        13.6219378658       10.7398600637       11.6118562966
  C        14.3553224600       11.4439754878       12.5847517507
  C        13.7823699410       12.5089235667       13.2762490422
  C        14.2613874286        9.6491108346       10.8385015066
  C        14.2565540440        9.6569524124        9.4168115810
  C        13.7435224270       10.7591650793        8.6629467998
  C        49.1271494683       21.2331666042       13.8744477340
  C        48.5504636756       22.4012380463       13.1474763598
  C        49.3003714422       23.0683213182       12.1662305810
  C        48.7334670712       24.1075273951       11.4330777565
  C        47.4030700206       24.5094963583       11.6619820984
  C        46.6723233295       23.8609844133       12.6758958071
  C        47.2347600171       22.8160571981       13.4052092096
  C        46.7726823510       25.5870942246       10.8647017474
  C        46.7615666174       25.5574167721        9.4429398247
  C        47.2617253602       24.4424502013        8.6994037840
  C        14.8602799656        8.5704956143        8.7035559962
  C        14.8921207590        8.5971650874       11.5151771198
  C        49.1134340945       21.2035292510        2.1504789171
  C        48.5281372698       22.3650207666        2.8775417406
  C        49.2672302105       23.0253455392        3.8708153172
  C        48.6909671663       24.0599736115        4.6022424107
  C        47.3607440768       24.4571887481        4.3636796427
  C        46.6405670765       23.8127844091        3.3396516147
  C        47.2140530615       22.7768495680        2.6078701034
  C        46.7221913869       25.5320497314        5.1547493973
  C        46.7337921485       25.5282796681        6.5764603873
  C        47.2494499330       24.4291709519        7.3328510122
  C        40.6308343121       17.1673095005        7.3270609382
  C        40.6479643740       17.1943055852        4.5167636293
  C        11.8831883247       14.0865670753        2.2907082994
  C        12.4725709281       12.9110041503        2.9951214309
  C        11.7149208058       12.1774160934        3.9208317548
  C        12.2815568698       11.0949523025        4.5891722341
  C        13.6205546089       10.7216241967        4.3576917775
  C        14.3587300054       11.4376949802        3.3974323850
  C        13.7932837231       12.5189054886        2.7248193502
  C        14.2540386298        9.6247221562        5.1280044151
  C        14.2526778822        9.6446193331        6.5498375702
  C        13.7429694982       10.7536489056        7.2969028394
  C        22.5109342186        3.2436905277       13.7466080517
  C        23.2246331767        4.3470895183       13.0430806430
  C        24.2209157249        4.0630515156       12.0973423869
  C        24.8497057137        5.0996832016       11.4126198103
  C        24.4977496881        6.4425622496       11.6534572358
  C        23.5283943448        6.7181626075       12.6351472493
  C        22.8951230593        5.6832726982       13.3184479258
  C        25.1088880405        7.5468241317       10.8789182799
  C        25.0895131402        7.5394056821        9.4571993010
  C        24.3900835373        6.5413481709        8.7069541260
  C        38.3030405361       31.9290389956       13.8434735988
  C        37.5756818019       30.8381558146       13.1335884947
  C        36.6182185434       31.1387067872       12.1527143485
  C        36.0046058494       30.1161357279       11.4342018213
  C        36.3336275379       28.7677323799       11.6750769363
  C        37.2608859884       28.4748354075       12.6929122281
  C        37.8786447094       29.4959043141       13.4100267048
  C        35.7375014062       27.6723029782       10.8778332774
  C        35.7721565485       27.6850238544        9.4562960389
  C        36.4702622571       28.6918023639        8.7176639592
  C        25.7178540726        8.6086661308        8.7409584941
  C        25.7043457331        8.6206035373       11.5528792764
  C        38.3270515649       31.9613923674        2.1608014658
  C        37.6024940274       30.8878850756        2.9003108020
  C        36.6762229123       31.1958403546        3.9086680902
  C        36.0649525200       30.1769451321        4.6371694001
  C        36.3653264012       28.8240150273        4.3811673757
  C        37.2676959156       28.5262025083        3.3414953602
  C        37.8812468425       29.5414704627        2.6143730235
  C        35.7618734731       27.7224767436        5.1667939748
  C        35.7849239681       27.7103774897        6.5889045131
  C        36.4761250562       28.7039299394        7.3509203628
  C        46.1355250459       26.6207510270        7.2866390354
  C        46.0881547129       26.5804021775        4.4787409016
  C        22.4647304041        3.2564250626        2.2617930593
  C        23.1677133595        4.3641007749        2.9800213772
  C        24.1761978324        4.0752965139        3.9134267698
  C        24.8123501438        5.1032922654        4.6057072953
  C        24.4607307472        6.4506913635        4.3882793638
  C        23.4757668766        6.7328575371        3.4227113737
  C        22.8352850264        5.7050487654        2.7304567718
  C        25.0957375294        7.5462608160        5.1646312607
  C        25.0838734488        7.5384272632        6.5876979532
  C        24.3855685173        6.5418086208        7.3402445709
  C        26.6106393452       17.8620391710       13.7800897058
  C        25.3042626489       17.9072627155       13.0568199730
  C        25.0589741071       18.8911359010       12.0859870355
  C        23.8467882381       18.9142386427       11.3990676023
  C        22.8457902494       17.9559052321       11.6589576871
  C        23.0891572652       16.9944196640       12.6581277965
  C        24.3024175499       16.9663045859       13.3440350676
  C        21.5740111670       17.9413809230       10.8932158901
  C        21.5741540920       17.9156025586        9.4705654767
  C        22.7792840080       17.7871105725        8.7104625573
  C        34.4359505895       17.1954609572       13.9196717580
  C        35.7274739983       17.1575208314       13.1699609245
  C        35.9336298397       16.1980492831       12.1662704554
  C        37.1137754962       16.1944764947       11.4277501518
  C        38.1207486521       17.1479513164       11.6747311930
  C        37.9165990557       18.0887405666       12.7017765510
  C        36.7328067455       18.0989302815       13.4361048033
  C        39.3762033526       17.1618446177       10.8903363835
  C        39.3727475257       17.1833000094        9.4690337222
  C        38.1660853810       17.3096130350        8.7113149530
  C        20.3278029789       17.9342294221        8.7616441251
  C        20.3488000112       17.9462285163       11.5747937200
  C        34.4292467817       17.2278518792        2.2569288152
  C        35.7409981622       17.1617951176        2.9611423885
  C        35.9949598535       16.1647969470        3.9158271729
  C        37.1919816209       16.1609504579        4.6253951690
  C        38.1663242677       17.1518106012        4.3970771281
  C        37.9229548258       18.1205861903        3.4061639242
  C        36.7230367876       18.1301925637        2.7000936596
  C        39.4186364214       17.1818245647        5.1836654476
  C        39.3943218293       17.1925445882        6.6041378844
  C        38.1760335199       17.3108260091        7.3448112153
  C        35.1684341338       26.6237020182        7.2939033153
  C        35.1650936008       26.6545926350        4.4854849144
  C        26.5640000016       17.8261199829        2.3284343329
  C        25.2501286569       17.8748003154        3.0323729498
  C        24.9981176424       18.8678654726        3.9910548605
  C        23.7805277911       18.8957606996        4.6646625951
  C        22.7880636758       17.9293183412        4.4059465271
  C        23.0353084049       16.9615945405        3.4151637427
  C        24.2526051814       16.9323415220        2.7380557664
  C        21.5258789304       17.9098200289        5.1802915110
  C        21.5496346426       17.8978811237        6.6020351770
  C        22.7674455790       17.7784924453        7.3442706363
  C        14.0466720726       17.8295375235        2.2936909386
  C        15.3503707153       17.8881152680        3.0181119738
  C        15.6049854765       18.8907680730        3.9669643251
  C        16.8135297166       18.9125509015        4.6601783056
  C        17.8015046164       17.9345859801        4.4267634600
  C        17.5518489035       16.9567915123        3.4452343299
  C        16.3427974786       16.9302466330        2.7535235019
  C        19.0698768234       17.9177678797        5.1961169005
  C        19.0681079951       17.9140444507        6.6185292535
  C        17.8609632739       17.8155747725        7.3794561218
  C        46.8061011254       17.2213101026        2.1647695718
  C        45.5165807484       17.1679506463        2.9128411914
  C        45.3065365079       16.1969306122        3.9038353898
  C        44.1252881542       16.1899665667        4.6411578607
  C        43.1251280949       17.1541444029        4.4084302119
  C        43.3325894329       18.1049282536        3.3911831382
  C        44.5144699845       18.1158353215        2.6553313088
  C        41.8720596353       17.1756032796        5.1963613404
  C        41.8774609512       17.1769698010        6.6183244921
  C        43.0864501864       17.2683226588        7.3778028783
  C        20.3148450016       17.9241804130        7.3268214722
  C        20.2937517244       17.8995306289        4.5138939994
  C        46.7862933556       17.2322546948       13.8842856242
  C        45.4819283551       17.1314471138       13.1692104738
  C        45.2594438802       16.1385436366       12.2034926374
  C        44.0706376547       16.1201125134       11.4780112352
  C        43.0759064031       17.0915196147       11.7022009595
  C        43.2882168890       18.0534184452       12.7070699865
  C        44.4781684271       18.0784019727       13.4270210701
  C        41.8301681888       17.1245642989       10.9051935346
  C        41.8562258850       17.1496369625        9.4846391948
  C        43.0761413504       17.2529549269        8.7443354634
  C        46.1532873926       26.6371499759        8.7211905593
  C        46.1626250565       26.6561761684       11.5308235347
  C        14.0456998237       17.8323605801       13.7037898283
  C        15.3658888955       17.9085881365       13.0138794484
  C        15.6365144965       18.9234299736       12.0837225448
  C        16.8648653331       18.9623083377       11.4281182939
  C        17.8501194745       17.9855646210       11.6768493251
  C        17.5865506409       17.0003456422       12.6458717278
  C        16.3602187856       16.9607442094       13.3049742421
  C        19.1167609078       17.9614293123       10.9075126664
  C        19.0925124034       17.9353682029        9.4861432482
  C        17.8728743528       17.8251451187        8.7454938244
  C        28.7935433525       14.1245508108        2.4086708950
  C        28.2009041333       12.9443657454        3.1004969896
  C        28.9345508028       12.2021673297        4.0381088948
  C        28.3470157899       11.1155435696        4.6826682117
  C        27.0125490227       10.7473841279        4.4144270280
  C        26.3016105831       11.4713287843        3.4403564728
  C        26.8861220392       12.5567670826        2.7939795867
  C        26.3500012776        9.6588198866        5.1701508906
  C        26.3331877166        9.6826722233        6.5911491479
  C        26.8323089590       10.7953201195        7.3401856255
  C        32.1771393785       21.2338857639        2.1530398985
  C        32.7725425591       22.3943977389        2.8749494996
  C        32.0585414076       23.0047923313        3.9181197232
  C        32.6297353943       24.0487670707        4.6390639328
  C        33.9312572155       24.5023808629        4.3473158649
  C        34.6257284425       23.9045066146        3.2777066667
  C        34.0564654738       22.8600430727        2.5528307762
  C        34.5665637332       25.5746443507        5.1453170326
  C        34.5832179535       25.5353164486        6.5673197972
  C        34.1050915510       24.4075325605        7.3070974656
  C        25.7197554475        8.6042911283        7.3061770537
  C        25.7148515944        8.6092264757        4.4925491635
  C        32.1034286490       21.2229496621       13.8763318104
  C        32.7033586273       22.3647713803       13.1251840845
  C        31.9862614031       23.0040269376       12.1017703722
  C        32.5744572260       24.0309338082       11.3668705090
  C        33.8928298703       24.4489238102       11.6364391577
  C        34.5927797451       23.8203176502       12.6842705684
  C        34.0101879830       22.7876449646       13.4142791900
  C        34.5375983355       25.5296023124       10.8555891969
  C        34.5654302995       25.5144657116        9.4340398294
  C        34.0936913872       24.3990160666        8.6734164954
  C        40.6193963396       17.1576799563        8.7609756533
  C        40.5992711197       17.1489648946       11.5702642143
  C        28.7384211693       14.0606767502       13.8175411224
  C        28.1289182320       12.9131272931       13.0807469543
  C        28.8690220886       12.2181889976       12.1120410917
  C        28.2919560023       11.1609918175       11.4125474609
  C        26.9587020153       10.7733676641       11.6556643536
  C        26.2355869782       11.4566390540       12.6512201257
  C        26.8113283962       12.5141833978       13.3531659411
  C        26.3208217971        9.6829773141       10.8794241896
  C        26.3183062002        9.6956899757        9.4575480666
  C        26.8230768478       10.8028772379        8.7058879640
  C        18.1354130472        3.1809829464        2.3222919162
  C        17.4059695252        4.2782016415        3.0207286529
  C        16.3902417389        3.9997988821        3.9482399232
  C        15.7424628684        5.0397548987        4.6117211848
  C        16.0943548603        6.3834989204        4.3720893704
  C        17.0836408243        6.6530715922        3.4082266032
  C        17.7327718723        5.6157535417        2.7431764502
  C        15.4700985060        7.4911834576        5.1352139816
  C        15.4852623923        7.4903840025        6.5569382009
  C        16.1865762875        6.4966052517        7.3101195978
  C        42.9458279055       31.8595265442        2.0779832731
  C        43.6462266524       30.7718535603        2.8219987786
  C        44.5917308717       31.0931975523        3.8080744901
  C        45.1974252199       30.0876681789        4.5557821973
  C        44.8710004635       28.7346170141        4.3409060697
  C        43.9451775534       28.4202606640        3.3277091044
  C        43.3363403755       29.4253856653        2.5796605208
  C        45.4886444821       27.6553199656        5.1440588887
  C        45.4926412661       27.6807940121        6.5657516625
  C        44.8053134122       28.6886743157        7.3123772201
  C        14.8564874654        8.5629701568        7.2693360695
  C        14.8751124335        8.5631538482        4.4566617002
  C        42.9463802235       31.9615845768       13.8039186756
  C        43.6915936267       30.8854173155       13.0903530849
  C        44.6562868144       31.1912854084       12.1181549848
  C        45.2777968538       30.1716914956       11.4004088029
  C        44.9539159656       28.8214004885       11.6379883083
  C        44.0202907631       28.5237555748       12.6486271153
  C        43.3920369131       29.5405392492       13.3607955294
  C        45.5630183870       27.7239933218       10.8527747444
  C        45.5331398951       27.7172004953        9.4314843952
  C        44.8265789498       28.7072850026        8.6785630341
  C        35.1609807818       26.6118732444        8.7288637465
  C        35.1357083310       26.5954094724       11.5389103796
  C        18.1487042736        3.2469960070       13.7015272934
  C        17.4300991134        4.3438378154       12.9922924555
  C        16.4147222490        4.0525305932       12.0689040805
  C        15.7663842676        5.0831596448       11.3935383885
  C        16.1211853193        6.4283954961       11.6160635378
  C        17.1126872819        6.7118016073       12.5731967413
  C        17.7603817853        5.6829104330       13.2529770259
  C        15.4906859205        7.5240762313       10.8435919431
  C        15.4963687665        7.5073211687        9.4224530092
  C        16.1928398297        6.5054372624        8.6757269410
  H        10.6724381694       12.4651105535       11.9001365977
  H        11.6948561611       10.5503566211       10.6582510414
  H        15.3925919288       11.1699512687       12.7659844769
  H        14.3521137552       13.0726824732       14.0110581163
  H        13.3768056700       11.6313995118        9.1962845997
  H        50.3229959344       22.7481185225       11.9812711795
  H        49.3199650535       24.6226441884       10.6754036449
  H        45.6430473233       24.1622435785       12.8594833030
  H        46.6639877865       22.2912105370       14.1677454314
  H        47.6306623470       23.5762241128        9.2410533614
  H        14.8726843801        8.5885653491       12.6034890478
  H        50.2871556070       22.7022352366        4.0659686862
  H        49.2693710796       24.5751939083        5.3659003149
  H        45.6114300270       24.1106499427        3.1501125921
  H        46.6535016342       22.2552069945        1.8357639107
  H        47.6086266103       23.5522174785        6.8019533781
  H        40.6536131631       17.1608849181        3.4289368590
  H        48.6872573451       14.0952442619       15.7949346892
  H        10.6813031364       12.4661402185        4.0979062810
  H        11.6897211068       10.5241805485        5.3015284725
  H        15.3943711233       11.1603016211        3.2119325782
  H        14.3659028179       13.0887538201        1.9968808814
  H        13.3764426750       11.6223882176        6.7582599831
  H        47.9303391343       14.2188210130        1.7163202983
  H        47.7802685844       14.3747042832       14.4904162433
  H        49.0853761925       18.5531962559        2.8729486818
  H        10.4167932807       14.1342548958        0.0039210640
  H        24.4805637526        3.0235516409       11.9098260634
  H        25.6232836942        4.8791092949       10.6802699257
  H        23.2489405060        7.7520563179       12.8269609867
  H        22.1250583885        5.8866561842       14.0585955418
  H        23.8252916342        5.7849803516        9.2441960626
  H        36.3797130505       32.1811863041       11.9553882374
  H        35.2616323273       30.3529162886       10.6757753290
  H        37.5222318125       27.4364890522       12.8861692877
  H        38.6203789694       29.2774230615       14.1745734715
  H        37.0314539396       29.4454213486        9.2624326328
  H        25.7334045758        8.6031861455       12.6408487098
  H        36.4563143721       32.2399926171        4.1194936964
  H        35.3419000475       30.4222337230        5.4119583738
  H        37.5111200031       27.4858497488        3.1361974193
  H        38.6008430674       29.3154618527        1.8312562874
  H        37.0427876959       29.4665871677        6.8245345321
  H        46.1097865160       26.5880144456        3.3907101985
  H        44.6681105822       35.1160576667       15.8088941303
  H        24.4520232682        3.0362142243        4.0786351565
  H        25.5967854974        4.8708691122        5.3228465485
  H        23.1915644239        7.7680855414        3.2450080683
  H        22.0591317169        5.9215039577        1.9999503492
  H        23.8169192469        5.7863666243        6.8058077629
  H        44.9532782787       34.3899585679        1.7000429176
  H        44.9012920038       34.2066463440       14.4855718136
  H        40.6651490263       33.2086435697        2.8579872289
  H        23.1507528823        1.9576665185        0.0098251935
  H        25.8326085184       19.6285019523       11.8831592576
  H        23.6613905792       19.6835902039       10.6525100829
  H        22.3281861085       16.2453052250       12.8672984726
  H        24.5011466362       16.2100632683       14.0998756777
  H        23.7199113313       17.6659017862        9.2397004032
  H        35.1533411647       15.4648160076       11.9757332766
  H        37.2732951387       15.4419872524       10.6585061556
  H        38.6856250540       18.8336699983       12.8957834526
  H        36.5581216664       18.8399931972       14.2127256461
  H        37.2273378459       17.4341262034        9.2433275208
  H        20.3552637868       17.9898692272       12.6625090526
  H        35.2431095544       15.3996599464        4.0939603054
  H        37.3878204284       15.3866464413        5.3639391436
  H        38.6703469335       18.8902679629        3.2247566177
  H        36.5125496388       18.8951525812        1.9563027495
  H        37.2445961951       17.4354729408        6.8001224806
  H        35.1196577890       26.6900893315        3.3986603469
  H        28.5025171361       21.0821742738       15.9639112709
  H        25.7694275917       19.6070449977        4.1951096828
  H        23.5853244124       19.6701286783        5.4033146524
  H        22.2769153489       16.2090246250        3.2092814385
  H        24.4594948999       16.1736583845        1.9870593530
  H        23.6992037573       17.6508826779        6.8013415330
  H        28.9912662245       21.7207148059        1.7773860597
  H        29.1611349148       21.7385013570       14.6158208627
  H        32.1075041186       18.6481500027        2.9542084460
  H        27.3637979185       19.0194984916        0.0884205165
  H        14.8453946964       19.6484909554        4.1457211582
  H        17.0076911158       19.6960872065        5.3894821203
  H        18.3047623153       16.1944326165        3.2558547332
  H        16.1384178267       16.1619591978        2.0116392367
  H        16.9185130412       17.6998845195        6.8521575576
  H        46.0858303399       15.4613956347        4.0893118084
  H        43.9623413890       15.4291850182        5.4013760007
  H        42.5687527115       18.8577972694        3.2080003845
  H        44.6922341984       18.8642195212        1.8866462938
  H        44.0285121820       17.3818832443        6.8490221342
  H        20.2876570043       17.9319206730        3.4258409410
  H        46.0337681615       15.3964664135       12.0225189312
  H        43.9004566131       15.3503199954       10.7284382718
  H        42.5248026935       18.8076368534       12.8862698534
  H        44.6650215332       18.8404439725       14.1795861633
  H        44.0105292468       17.3533403068        9.2890215429
  H        46.1996735807       26.6828870407       12.6182584568
  H        52.7416423651       21.0629281379        0.1998632530
  H        14.8744228498       19.6753822820       11.8913930876
  H        17.0742382553       19.7520529704       10.7098159487
  H        18.3392477241       16.2405048763       12.8457952233
  H        16.1412956464       16.1870187563       14.0368019713
  H        16.9393250728       17.7167522866        9.2893587076
  H        52.3240073547       21.6739218762       14.2887232280
  H        52.0145503592       21.7031518886        1.5009049231
  H        49.0689257257       18.6081749121       13.1985519720
  H        13.2482963450       19.0159135693       15.9723176460
  H        29.9639307760       12.4876945017        4.2442865771
  H        28.9173831638       10.5380984542        5.4070948808
  H        25.2704129594       11.1982636573        3.2259783693
  H        26.3340172173       13.1355479263        2.0576131336
  H        27.1952504105       11.6654120020        6.8016741110
  H        31.0677581068       22.6314206836        4.1680232832
  H        32.0676751419       24.5238510591        5.4399001777
  H        35.6332981455       24.2436503702        3.0460688416
  H        34.5987972108       22.3763293665        1.7436771740
  H        33.7674445557       23.5301607160        6.7630821852
  H        25.7459790369        8.5930652761        3.4044827924
  H        30.9708080448       22.6781483493       11.8880686930
  H        32.0102917619       24.5283238712       10.5808744109
  H        35.6135821436       24.1305693889       12.8978038803
  H        34.5561449110       22.2811452502       14.2067779937
  H        33.7465168617       23.5159634423        9.2022198191
  H        40.5920001967       17.1033207354       12.6576115220
  H        32.5153123397       14.1449844812        0.2316182080
  H        29.8967332804       12.5224073234       11.9262463298
  H        28.8733291404       10.6170807160       10.6711578776
  H        25.2037162895       11.1708584342       12.8449628554
  H        26.2494482521       13.0584775539       14.1086004382
  H        27.1786628054       11.6781161862        9.2416754901
  H        33.3086819649       14.2309677041       14.4595165021
  H        33.4069135322       14.3647849152        1.6175972791
  H        32.1663576819       18.5338251158       13.2635287267
  H        30.1849779431       14.1445372783        0.0924130771
  H        16.1181488035        2.9632966909        4.1346120104
  H        14.9529710085        4.8203092013        5.3273168542
  H        17.3659765313        7.6859642328        3.2150545579
  H        18.5146946815        5.8184769431        2.0152284450
  H        16.7529303826        5.7391134529        6.7766248696
  H        44.8279909655       32.1402904557        3.9822271251
  H        45.9372704441       30.3414249424        5.3117468220
  H        43.6824602727       27.3781922912        3.1576424142
  H        42.5996489141       29.1900941658        1.8150538844
  H        44.2298521781       29.4363527571        6.7740583726
  H        14.8515001842        8.5465434246        3.3684352977
  H        44.8998992352       32.2339652423       11.9267833236
  H        46.0247631535       30.4128976072       10.6472225412
  H        43.7632315555       27.4840353483       12.8400936308
  H        42.6454007322       29.3178116220       14.1191286625
  H        44.2679562378       29.4700640918        9.2131868546
  H        35.0852027973       26.6129436659       12.6259818968
  H        36.6049177069       35.1339864242        0.1857755278
  H        16.1434682557        3.0129705290       11.8993451421
  H        14.9738929165        4.8562854491       10.6836466324
  H        17.3962744376        7.7472680270       12.7499800825
  H        18.5433035848        5.8934109033       13.9776746761
  H        16.7641063940        5.7550536990        9.2141399330
  H        36.2780682493       34.4829174372       14.2679103592
  H        36.3796858996       34.2097542991        1.5052386451
  H        40.5799714491       33.2025509288       13.1486280942
  H        17.4709710247        1.9475543766       15.9690754685
  H        29.0127998830       19.3889165043        4.5116349300
  H        29.8973721345       19.7225230806       11.6244864933
  H        31.9344836041       15.8431463782       11.5723168976
  H        31.1883349233       15.7398578301        5.0650631246
  H        28.2399665554       17.7697072925        6.9130777323
  H        29.6574962719       15.1535360724        6.4298513692
  H        31.8408233146       19.9057209384        9.7893583987
  H        33.0910496206       16.9924502741        9.6565781009
  H        28.8585487950       16.8260490606        9.4515253584
  H        18.8529853841        0.8688560984        4.3403844679
  H        40.5279157287       35.2292542806       11.9469830897
  H        42.3236455835       34.4185737944       11.5856534125
  H        22.0876753823        0.6920949648        4.3567292971
  H        11.5965223470       18.7129995520        4.3880237338
  H        52.2651877119       18.4317568712       11.6719012954
  H        49.2552464273       16.4768575010       11.5793760357
  H        10.1505080413       15.7982860039        4.2975396268
  H        50.8506972845       17.6925772461       11.9489203102
  H        10.0463954908       17.3947904122        4.0568991829
  H        20.2141322801        0.0021364257        4.0472131182
  H        39.1834024255       36.1243412014       11.6811762481
  H        32.1172670808       18.7262224777        6.8903922056
 Ni        30.8209365356       17.7424877059       10.9868223731
 Ni        31.1553265623       16.4264932115        8.2408913150
 Ni        30.0974490318       19.0830475318        8.0773880808
 Ni        30.1861619155       17.6671141445        5.4159878940
  O        10.6500685472       14.3651233798       13.4807405555
  O        12.6132267952       14.6575066053       14.5788208557
  O        49.1480280096       16.8457620515       15.9845940748
  O        50.3503707270       20.9356165173       13.6427695983
  O        48.3486242205       20.5933327517       14.6607322448
  O        11.0520354089       17.0536997881       14.4957428478
  O        50.3210267115       20.8816177926        2.4120152343
  O        48.3467548816       20.5867982041        1.3322786708
  O        49.5438545538       18.2483349562        2.0733090913
  O        12.3594907254       18.6247952383        0.0047768140
  O        48.6932490410       14.1486295655       14.7462013541
  O         8.2098802201       14.2105662949        1.3277295534
  O        10.7353407288       14.5067536908        2.6694139476
  O        12.5718267612       14.5827893267        1.3336394491
  O        22.8444083043        2.0424964717       13.4821367551
  O        21.6059009204        3.5924653685       14.5842306944
  O        42.0581363718       34.1374153307       15.9740167586
  O        37.9817922879       33.1372973621       13.5671903422
  O        39.2183802460       31.5763222359       14.6617536162
  O        20.3083723750        1.0397704392       14.4971614262
  O        38.0244188551       33.1854272463        2.4204432226
  O        39.2187060323       31.5834746961        1.3318976848
  O        40.6522447076       33.7693330234        2.0653563727
  O        18.2557569691        1.3765119165        0.0019320667
  O        44.6222102032       35.1005464215       14.7536803399
  O        24.2053664939        0.0000178539        1.3259420593
  O        22.7533770394        2.0578309471        2.5892319235
  O        21.6255019030        3.5971780310        1.3496920557
  O        27.4844174119       18.7497610112       13.4988371760
  O        26.7567541535       16.9275928732       14.6476441205
  O        30.6358998003       19.3515990880        0.0803893558
  O        33.5879950337       16.2739246415       13.6650385175
  O        34.2697069264       18.1681168463       14.7374064079
  O        29.5723575380       17.0555344833       14.5745685028
  O        33.5431511235       16.3430375646        2.5783349396
  O        34.2670083199       18.1673352121        1.4182050291
  O        31.6434763565       18.3044893997        2.1744943442
  O        30.2933761336       15.1091931672        0.0940134365
  O        28.5536431124       21.0306715845       14.8977377082
  O        28.5112762224       20.9557579858        1.4163461209
  O        27.4509863130       18.6778638020        2.6601747238
  O        26.6920567958       16.9248903475        1.4195175732
  O        13.1478645167       18.6931131010        2.5922379646
  O        13.9190920300       16.9164054404        1.4101378787
  O        50.5968863746       19.3503145657        0.0254879716
  O        47.6817504413       16.3275147395        2.4229274077
  O        46.9522469491       18.1764077674        1.3289177746
  O        11.0699690859       17.0154881957        1.4945950944
  O        47.6751899636       16.3357660852       13.6474500879
  O        46.9280531603       18.2360830396       14.6600647389
  O        49.5690770165       18.3176573200       13.9771900894
  O        10.3189386158       15.1000550711        0.0022130310
  O        52.6708139926       21.0278775857        1.2469032223
  O        12.1468847682       20.8912972106       14.6682463158
  O        13.1074695204       18.6137789380       13.3207491642
  O        13.9569573081       16.9871699281       14.6602501011
  O        29.9669867449       14.5159544615        2.7527943089
  O        28.0801582595       14.6553946578        1.4967456589
  O        32.1159725650       16.8180138117        0.1050774213
  O        30.9637105214       20.9458082876        2.4132385934
  O        32.9465017356       20.5928344580        1.3429428870
  O        29.5685203225       17.0668688121        1.5830956377
  O        30.8726170423       20.9458910051       13.6594272118
  O        32.8762692396       20.5827834265       14.6661833311
  O        31.6845577087       18.2513748416       14.0569839770
  O        28.2547944427       18.6335831678        0.0839913979
  O        32.4898380452       14.2121619339        1.3289339439
  O        32.4089350729       14.2089077938       14.8270871705
  O        29.9106748507       14.4285083366       13.4908564415
  O        28.0303500225       14.5890362860       14.7475191895
  O        17.8892537577        1.9666383992        2.6678981555
  O        18.9563426480        3.5271482351        1.4131084679
  O        39.1685679875       34.1388172036        0.0023515213
  O        43.2802289048       33.0589222257        2.3368196036
  O        42.0345376909       31.5064292865        1.2467279207
  O        20.3176020113        1.0366791043        1.4852787430
  O        43.2760837221       33.1825432274       13.5697884203
  O        42.0052737622       31.5840648318       14.5779112796
  O        40.5790369157       33.7750780568       13.9308636720
  O        22.3673370711        1.3848547808        0.0032111793
  O        36.6728120498       35.0998302800        1.2383740671
  O        16.4456471474        0.0642898731       14.6631861933
  O        17.9365175773        2.0433858753       13.3213345967
  O        18.9191928101        3.5930948334       14.6608976556
  O        29.7794497912       18.9142195069       12.1641461588
  O        29.7077701068       18.9094494690        4.0151968164
  O        31.2976493341       16.2712063148       12.1810075338
  O        31.5535299093       16.2604664002        4.2411590389
  O        32.2340930655       16.5656897144        9.8149770894
  O        29.7006615861       17.2931302275        9.3234898200
  O        30.4161896355       15.7593159163        6.4271935827
  O        31.5201982957       17.9567938757        6.9146910634
  O        30.9696272514       19.4837653717        9.8369147585
  O        28.8364417024       18.4646386892        6.5892891166
  O        39.4568035037       35.2438514202       11.9968853892
  O        19.1410252631        0.0044207966        3.9956741345
  O        41.9696584245       35.1727568087       12.0820958805
  O        21.6913213155       -0.0693374424        3.9010677441
  O        51.3652622441       18.6143632887       12.0001945581
  O        10.7508967861       18.7470152566        3.9100866689
  O        50.0796261309       16.4127155143       12.0866459664
  O         9.5244539502       16.4831269868        3.9962700226
 Zr         9.2987775038       16.0527445758       14.1775101131
 Zr        49.8378530252       16.0067847524        1.7512549298
 Zr        22.0729168756        0.0297324883       14.1841204063
 Zr        42.4606929209       35.1534999771        1.8062170661
 Zr        29.5754909387       19.0918089269       14.2688104371
 Zr        29.5488115554       19.1738119484        1.8765125407
 Zr        11.0394864951       19.0519732607        1.8331078375
 Zr        11.0456101524       19.1548364949       14.2453757987
 Zr        31.3282044420       16.0853986558        1.8294189171
 Zr        31.3665127592       15.9883806035       14.2674892201
 Zr        18.6007955688       -0.0016185252        1.7684741676
 Zr        18.5062744823       -0.0076864981       14.2085938249
 Zr        12.3040726114       16.3236870661       15.9853279758
 Zr        48.6190038017       18.8337352997        0.0152413882
 Zr        20.3153290670        2.4736595855       15.9859593925
 Zr        40.6430291464       32.6869635891       15.9733503296
 Zr        28.3209433217       16.3374671887        0.0722156302
 Zr        32.5988732970       18.8358552203        0.0620805188
  O        30.3860880196       20.6664352725        7.0918353273
  H        30.8233554944       21.3296838872        7.6518809113
  H        32.5142534145       16.3947703563        4.3653093776
