     587
 i =      750, E =     -4853.3419292332
  C        11.8580639516       14.0535558919       13.7365990340
  C        12.4540375399       12.8896330360       13.0183160590
  C        11.7002439817       12.1713650057       12.0777984135
  C        12.2742345481       11.1079619375       11.3853535635
  C        13.6145664241       10.7365489720       11.6117987949
  C        14.3498819623       11.4393831684       12.5842347278
  C        13.7792793257       12.5055854726       13.2758517042
  C        14.2515065449        9.6445909071       10.8382125294
  C        14.2446747872        9.6512649493        9.4163964875
  C        13.7319559234       10.7535591854        8.6626062546
  C        49.1269023002       21.2318301625       13.8739651232
  C        48.5494124201       22.3978973328       13.1454303665
  C        49.2988408308       23.0650516401       12.1639346198
  C        48.7303079579       24.1022661520       11.4293371225
  C        47.3989815555       24.5014291465       11.6573841189
  C        46.6685649847       23.8526011549       12.6712536787
  C        47.2325615318       22.8097224062       13.4019332178
  C        46.7666694305       25.5776207038       10.8602817368
  C        46.7547555946       25.5487609414        9.4386854698
  C        47.2578981899       24.4358165013        8.6942174448
  C        14.8462636148        8.5636305092        8.7030828137
  C        14.8819636855        8.5924373566       11.5147109819
  C        49.1129900257       21.2037444551        2.1495739721
  C        48.5265573513       22.3652068009        2.8749636832
  C        49.2654441073       23.0298952373        3.8653963423
  C        48.6866818679       24.0634930580        4.5962100029
  C        47.3543521111       24.4546542615        4.3595909791
  C        46.6343529480       23.8062691403        3.3381459786
  C        47.2104106654       22.7715266050        2.6069368548
  C        46.7126883640       25.5268901849        5.1512301500
  C        46.7252983425       25.5218835222        6.5727640848
  C        47.2449290850       24.4236371419        7.3277320596
  C        40.6326939161       17.1224624261        7.3271989709
  C        40.6488678034       17.1495594806        4.5182227077
  C        11.8819457833       14.0862063822        2.2900146410
  C        12.4684931512       12.9085946670        2.9936873773
  C        11.7081503259       12.1772547258        3.9189807939
  C        12.2711943253       11.0932560937        4.5878027351
  C        13.6091884074       10.7162659087        4.3568973885
  C        14.3499448867       11.4297588576        3.3966144789
  C        13.7880156554       12.5126092446        2.7236355362
  C        14.2396198462        9.6180216293        5.1275532826
  C        14.2383421846        9.6378196518        6.5494807248
  C        13.7302454093       10.7475419142        7.2964487686
  C        22.3885964047        3.2512313567       13.6344589951
  C        23.1203574489        4.3584042319       12.9580651266
  C        24.1416491009        4.0804857748       12.0378066458
  C        24.8059649283        5.1234035818       11.3982344350
  C        24.4618396399        6.4654807792       11.6566166203
  C        23.4700865287        6.7344533494       12.6170321622
  C        22.8037802328        5.6928123062       13.2574496190
  C        25.0869188951        7.5717190569       10.8976573214
  C        25.0623021205        7.5658214540        9.4745182640
  C        24.3457051501        6.5777839731        8.7313405975
  C        38.3017404640       31.9321809867       13.8463093716
  C        37.5723815021       30.8412388319       13.1412739920
  C        36.6158950668       31.1419941293       12.1596959101
  C        36.0027989682       30.1189184775       11.4425636420
  C        36.3313042290       28.7709060903       11.6863432821
  C        37.2558747195       28.4776844473       12.7063112411
  C        37.8739209641       29.4994607633       13.4215866834
  C        35.7330782936       27.6786678328       10.8887542598
  C        35.7629725786       27.6971284269        9.4671725407
  C        36.4740042904       28.6967323874        8.7319999381
  C        25.6991184127        8.6272079056        8.7558696621
  C        25.6919818562        8.6402048011       11.5702476930
  C        38.3333755126       31.9662223649        2.1593005803
  C        37.6129039201       30.8951244116        2.9064327705
  C        36.6933552369       31.2086511047        3.9190946460
  C        36.0816974812       30.1935671940        4.6521231563
  C        36.3740372775       28.8390900301        4.3951813622
  C        37.2722455766       28.5357526947        3.3534773099
  C        37.8870698251       29.5474751246        2.6226254818
  C        35.7604121854       27.7426827244        5.1787026693
  C        35.7766359559       27.7299673799        6.6011678995
  C        36.4809788295       28.7121185229        7.3649507125
  C        46.1239509215       26.6118148917        7.2839108792
  C        46.0747705123       26.5734028181        4.4761292284
  C        22.3563719905        3.2706109555        2.3761440294
  C        23.0717365665        4.3706052224        3.0913208849
  C        24.0932525251        4.0813612532        4.0087859096
  C        24.7583449748        5.1128861591        4.6675777520
  C        24.4186922778        6.4599695484        4.4307115525
  C        23.4199399735        6.7420613280        3.4808175781
  C        22.7536042857        5.7112775198        2.8213851040
  C        25.0652669182        7.5582679465        5.1873384396
  C        25.0522850090        7.5582402573        6.6110105361
  C        24.3397328675        6.5747776651        7.3634027452
  C        26.6206550251       17.8589583064       13.7809490140
  C        25.3134080227       17.8976883771       13.0504535005
  C        25.0709090721       18.8724892586       12.0704135712
  C        23.8587361141       18.8943165821       11.3828954517
  C        22.8528495457       17.9446214779       11.6552908844
  C        23.0931881932       16.9911349938       12.6631297913
  C        24.3082091037       16.9631671468       13.3461180616
  C        21.5795395409       17.9298612631       10.8931609476
  C        21.5773721363       17.9045898201        9.4685410726
  C        22.7802875184       17.7709460978        8.7085615345
  C        34.4886855965       17.2268214890       13.9871580664
  C        35.7693855296       17.1739453327       13.2204956329
  C        35.9683935597       16.1886222363       12.2413918782
  C        37.1335221297       16.1772667687       11.4792381937
  C        38.1349620560       17.1450172017       11.6855930108
  C        37.9394327435       18.1128453071       12.6889458531
  C        36.7678186680       18.1340674985       13.4412792267
  C        39.3843390513       17.1446328442       10.8922237066
  C        39.3773395216       17.1472682387        9.4705183376
  C        38.1687575984       17.2607027176        8.7151149290
  C        20.3302913381       17.9280569243        8.7615056240
  C        20.3545063168       17.9359858435       11.5759039622
  C        34.4729224960       17.2475098140        2.1928639777
  C        35.7742577153       17.1703834783        2.9160475631
  C        35.9773908312       16.1950513756        3.9031044293
  C        37.1628203632       16.1709567861        4.6311236541
  C        38.1725763376       17.1218805746        4.3891454954
  C        37.9757547650       18.0721620077        3.3699230234
  C        36.7873335807       18.1018919836        2.6461711983
  C        39.4184615640       17.1374862044        5.1840836700
  C        39.3946396022       17.1469741964        6.6057866259
  C        38.1768706904       17.2609936997        7.3478498400
  C        35.1412712633       26.6524863110        7.3034822117
  C        35.1568795456       26.6805220898        4.4944304697
  C        26.5676522891       17.8243213533        2.3309572372
  C        25.2504824086       17.8722011649        3.0349557988
  C        24.9935312110       18.8670599137        3.9897980608
  C        23.7762303423       18.8917596766        4.6643724767
  C        22.7872279157       17.9219421721        4.4052874650
  C        23.0376601074       16.9532234376        3.4162015219
  C        24.2567353873       16.9255191207        2.7421534560
  C        21.5250147598       17.9002512852        5.1782145244
  C        21.5494889776       17.8887540507        6.6016095784
  C        22.7667839053       17.7643081273        7.3406145977
  C        14.0454317179       17.8289031236        2.2936212765
  C        15.3499799795       17.8860027545        3.0195526431
  C        15.6047906229       18.8876181832        3.9691880223
  C        16.8131112102       18.9079461508        4.6631584827
  C        17.8006416466       17.9298692044        4.4278520440
  C        17.5511391322       16.9532250625        3.4449644316
  C        16.3415905706       16.9276606097        2.7540877416
  C        19.0691805775       17.9110639949        5.1958572215
  C        19.0687359214       17.9096874457        6.6200912411
  C        17.8631198176       17.8121317233        7.3807764656
  C        46.8049774334       17.2182854516        2.1641060214
  C        45.5160401593       17.1559277111        2.9099185147
  C        45.3128558905       16.1802782512        3.8982320172
  C        44.1321851174       16.1624118484        4.6356729957
  C        43.1248217237       17.1200039133        4.4063705796
  C        43.3249751480       18.0744891282        3.3906644292
  C        44.5064598041       18.0965725554        2.6544748447
  C        41.8729889547       17.1326565763        5.1958713683
  C        41.8792695240       17.1328127402        6.6180518906
  C        43.0885518506       17.2278692109        7.3750606070
  C        20.3157160571       17.9185699093        7.3272369620
  C        20.2924519670       17.8893783391        4.5126467896
  C        46.7866962800       17.2316607482       13.8845575923
  C        45.4846198374       17.1285257781       13.1700585822
  C        45.2655486007       16.1324257235       12.2066288409
  C        44.0781493492       16.1100311987       11.4800349263
  C        43.0818268738       17.0808089809       11.7003933951
  C        43.2908077443       18.0457788250       12.7032782225
  C        44.4793568205       18.0748085008       13.4247031813
  C        41.8370407252       17.1076489184       10.9040043087
  C        41.8612592267       17.1183432776        9.4830631736
  C        43.0802107690       17.2182819156        8.7419860664
  C        46.1428628926       26.6272397809        8.7182311356
  C        46.1551866584       26.6449274209       11.5276783882
  C        14.0458069232       17.8321836008       13.7041681402
  C        15.3683700517       17.9078333537       13.0144670613
  C        15.6405290686       18.9213680370       12.0834333800
  C        16.8695130051       18.9589302137       11.4282748657
  C        17.8548524745       17.9825921246       11.6797768972
  C        17.5903568414       16.9992660110       12.6507696153
  C        16.3626173756       16.9605156757       13.3077789478
  C        19.1213681424       17.9551106221       10.9103497051
  C        19.0959256790       17.9305985927        9.4870059878
  C        17.8764498374       17.8216138621        8.7486344524
  C        28.8101407720       14.0919800490        2.3962989328
  C        28.2000992783       12.9138181071        3.0835416451
  C        28.9220329536       12.1852156429        4.0399390605
  C        28.3268725083       11.1103728319        4.6953548921
  C        26.9960305538       10.7401489902        4.4151456634
  C        26.2968594195       11.4468424023        3.4196660259
  C        26.8897940733       12.5233648606        2.7651643614
  C        26.3265648952        9.6641505780        5.1789361731
  C        26.3138779060        9.6932939689        6.6025840970
  C        26.8202466502       10.8036540475        7.3468491639
  C        32.1560811149       21.2724189417        2.1554287373
  C        32.7441683204       22.4401838174        2.8756267584
  C        31.9981992617       23.1110232651        3.8557249595
  C        32.5691557854       24.1502092670        4.5841881414
  C        33.9010809681       24.5436435431        4.3514619994
  C        34.6288516246       23.8913854427        3.3388556635
  C        34.0600500199       22.8476863876        2.6128731610
  C        34.5371433046       25.6127341906        5.1526826160
  C        34.5377970378       25.5762012384        6.5745507544
  C        34.0258143377       24.4607127400        7.3093316751
  C        25.6974344711        8.6207409743        7.3226923327
  C        25.6856386884        8.6140271410        4.5074438772
  C        32.0887977235       21.2591256757       13.9134313471
  C        32.6854751932       22.4006486118       13.1571264342
  C        31.9495753530       23.0670680172       12.1654016753
  C        32.5364130908       24.0847947992       11.4167758275
  C        33.8713560403       24.4697357546       11.6472584926
  C        34.5912709145       23.8168727905       12.6661448736
  C        34.0106201411       22.7900745220       13.4055265823
  C        34.5144990680       25.5480635661       10.8622332413
  C        34.5245463526       25.5440201911        9.4398778720
  C        34.0181455177       24.4461450391        8.6765000280
  C        40.6234167169       17.1188840479        8.7609894702
  C        40.6077643581       17.1413051705       11.5705644069
  C        28.7530217998       14.0736776488       13.8136240325
  C        28.1395815144       12.9267802540       13.0734095223
  C        28.8721954166       12.2328869388       12.0992566616
  C        28.2915155861       11.1751806162       11.4035929424
  C        26.9622247889       10.7844242063       11.6624737356
  C        26.2462545975       11.4652135743       12.6647324981
  C        26.8256343325       12.5255852923       13.3582197158
  C        26.3157456822        9.6969684043       10.8928632453
  C        26.3090647781        9.7098785576        9.4687257941
  C        26.8163361102       10.8127165796        8.7151012878
  C        18.1296767307        3.1824379227        2.3206868355
  C        17.3945907105        4.2771703843        3.0160252614
  C        16.3817988303        3.9946875238        3.9454778341
  C        15.7315179323        5.0322513580        4.6102217547
  C        16.0786510228        6.3771612919        4.3702395585
  C        17.0646955023        6.6506629801        3.4041192710
  C        17.7160278262        5.6157881670        2.7375870043
  C        15.4535285941        7.4832940048        5.1345048788
  C        15.4689980603        7.4824005451        6.5563368044
  C        16.1705428631        6.4886862083        7.3092787161
  C        42.9408656945       31.8552634229        2.0764499375
  C        43.6348059792       30.7662652848        2.8234924490
  C        44.5805691495       31.0852970484        3.8100833977
  C        45.1838599233       30.0782566579        4.5574057203
  C        44.8547148783       28.7260814593        4.3412713360
  C        43.9276016243       28.4139203243        3.3287009930
  C        43.3210639973       29.4207224592        2.5810374465
  C        45.4729790471       27.6461018295        5.1427741666
  C        45.4777297682       27.6705827083        6.5643288210
  C        44.7880591349       28.6760552445        7.3120197995
  C        14.8412473868        8.5555563731        7.2688710378
  C        14.8590706988        8.5556634620        4.4561928255
  C        42.9434859345       31.9546004733       13.7963040558
  C        43.6871263071       30.8750352499       13.0871956052
  C        44.6495346086       31.1792180856       12.1121139173
  C        45.2694622018       30.1583248193       11.3954959592
  C        44.9454248462       28.8087894595       11.6366019385
  C        44.0145050375       28.5127345615       12.6501390741
  C        43.3881216248       29.5310028946       13.3619429882
  C        45.5528309472       27.7115367783       10.8506784280
  C        45.5207153537       27.7052359751        9.4295501267
  C        44.8105045170       28.6938604969        8.6781809284
  C        35.1347696334       26.6356984115        8.7377222142
  C        35.1295416378       26.6021746365       11.5477796846
  C        18.1430739466        3.2473907650       13.7037929414
  C        17.4209397492        4.3419824055       12.9947108879
  C        16.4069671450        4.0482938020       12.0705865637
  C        15.7572449396        5.0775107329       11.3942155197
  C        16.1097144872        6.4234848250       11.6161394134
  C        17.0995644993        6.7092010972       12.5743807043
  C        17.7482476139        5.6818187210       13.2552985794
  C        15.4786487639        7.5182820338       10.8431208553
  C        15.4825008374        7.5004311324        9.4218812645
  C        16.1778289041        6.4979587639        8.6750196984
  H        10.6682411216       12.4667705732       11.9020339621
  H        11.6862336145       10.5498190862       10.6598964407
  H        15.3867358727       11.1633166186       12.7649558413
  H        14.3501752731       13.0682735229       14.0106491042
  H        13.3662437266       11.6262574655        9.1959343214
  H        50.3222067881       22.7465529454       11.9801196843
  H        49.3159940404       24.6179708978       10.6714269344
  H        45.6384000536       24.1516986921       12.8533810604
  H        46.6623127676       22.2841645130       14.1643613766
  H        47.6294515566       23.5702095722        9.2350992289
  H        14.8636720069        8.5844845005       12.6030737464
  H        50.2868478180       22.7106862685        4.0592500027
  H        49.2641764965       24.5821676689        5.3582278081
  H        45.6034639141       24.0993960455        3.1507442833
  H        46.6501551541       22.2459745619        1.8372901685
  H        47.6062978493       23.5482348946        6.7957498563
  H        40.6531018381       17.1164770224        3.4304539035
  H        48.6868428527       14.0947299882       15.7949108177
  H        10.6752278163       12.4690171168        4.0952597157
  H        11.6772354680       10.5241980422        5.2998097044
  H        15.3847732245       11.1489539251        3.2115114651
  H        14.3622774497       13.0805480671        1.9954345810
  H        13.3638541068       11.6163377522        6.7577430075
  H        47.9300933460       14.2172780907        1.7159018588
  H        47.7797659349       14.3719239478       14.4896623868
  H        49.0828601702       18.5523959922        2.8722921106
  H        10.4152245317       14.1342854010        0.0037075275
  H        24.3927953000        3.0418642852       11.8338867303
  H        25.5977382569        4.9093631518       10.6834281245
  H        23.1976214321        7.7676915966       12.8224179774
  H        22.0171231025        5.8901055920       13.9816809792
  H        23.7687359995        5.8323514204        9.2706214474
  H        36.3785530689       32.1843998098       11.9608791339
  H        35.2609631622       30.3539198181       10.6825491917
  H        37.5152948883       27.4393221198       12.9019675639
  H        38.6145954124       29.2821624376       14.1874354601
  H        37.0459218335       29.4405422457        9.2790195926
  H        25.7250302062        8.6238773217       12.6582054008
  H        36.4787503142       32.2541002530        4.1287465428
  H        35.3628692456       30.4426234526        5.4295975100
  H        37.5100599906       27.4940511444        3.1484979307
  H        38.6028531639       29.3176515496        1.8371342319
  H        37.0593147977       29.4672638599        6.8403789381
  H        46.0954958579       26.5816734564        3.3880809526
  H        44.6668768317       35.0329240560       15.7858644136
  H        24.3574131900        3.0413914570        4.1872839066
  H        25.5543543740        4.8846304306        5.3733127927
  H        23.1466273245        7.7783160770        3.2922143606
  H        21.9679470249        5.9234353722        2.1002327452
  H        23.7581946461        5.8273809893        6.8316801703
  H        44.9209902665       34.2840692254        1.7140374559
  H        44.7932856738       34.1098166987       14.4592168296
  H        40.6898776372       33.2126848908        2.7917643662
  C        23.7092753629        2.3180316395        0.0048230665
  H        25.8454210359       19.6073171359       11.8617377350
  H        23.6777935550       19.6575231268       10.6290697678
  H        22.3292237436       16.2475153668       12.8810345388
  H        24.5059485519       16.2132449109       14.1085348850
  H        23.7219642771       17.6449530459        9.2349243282
  H        35.1941287146       15.4408127953       12.0878116592
  H        37.2849686320       15.4085518224       10.7245896389
  H        38.7057419242       18.8683238858       12.8496343874
  H        36.5971980827       18.8959689006       14.1982728992
  H        37.2277127413       17.3775944963        9.2451620434
  H        20.3625762426       17.9798445785       12.6636140367
  H        35.1871013176       15.4734991498        4.0954318896
  H        37.3188364264       15.4127770310        5.3951862190
  H        38.7501736044       18.8126317003        3.1810545272
  H        36.6111898050       18.8533436652        1.8802454441
  H        37.2414587575       17.3791661185        6.8081858297
  H        35.1227321929       26.7111276152        3.4071077623
  H        28.4981001221       21.0896430468       15.9837275520
  H        25.7603253204       19.6119772648        4.1895132342
  H        23.5785965194       19.6664744947        5.4019869722
  H        22.2818654557       16.1978750473        3.2107985746
  H        24.4688741473       16.1652373659        1.9942087646
  H        23.6980922460       17.6338141668        6.7975578272
  H        28.9931109109       21.7213830522        1.7777014971
  H        29.1650211245       21.7350983612       14.6247788163
  H        32.0972811415       18.5674441886        3.0109251802
  H        27.3654483149       19.0754759718        0.0946503373
  H        14.8454573240       19.6456556063        4.1480498305
  H        17.0076373723       19.6912227562        5.3927151810
  H        18.3037981485       16.1908161266        3.2545546193
  H        16.1362449962       16.1601344416        2.0116059951
  H        16.9198484111       17.6968422447        6.8546613412
  H        46.0972879858       15.4497798429        4.0815682653
  H        43.9747984408       15.3981400794        5.3935635734
  H        42.5547600525       18.8212643042        3.2093032141
  H        44.6774796912       18.8481197459        1.8873201237
  H        44.0299307646       17.3409964903        6.8449830710
  H        20.2858296658       17.9208835539        3.4245803710
  H        46.0411739208       15.3909513700       12.0291326526
  H        43.9091778007       15.3377029211       10.7328333725
  H        42.5253353227       18.7986162212       12.8793677199
  H        44.6636409377       18.8386963805       14.1760070670
  H        44.0151151499       17.3230944716        9.2848373245
  H        46.1934543485       26.6712191288       12.6150761110
  H        52.7410146039       21.0627564330        0.1997782721
  H        14.8788285125       19.6734070333       11.8894393140
  H        17.0793391198       19.7482573997       10.7095598415
  H        18.3426139775       16.2396077627       12.8532891421
  H        16.1426582612       16.1877544234       14.0404184010
  H        16.9431499379       17.7133405221        9.2931357853
  H        52.3233590438       21.6734531299       14.2888628602
  H        52.0137935018       21.7025103712        1.5010903961
  H        49.0669008134       18.6076708668       13.1994317493
  H        13.2471564597       19.0174850983       15.9721546260
  H        29.9468911326       12.4767003588        4.2582376220
  H        28.8889095988       10.5460842630        5.4363978232
  H        25.2683900115       11.1701958488        3.1966860617
  H        26.3482540983       13.0930110693        2.0138503589
  H        27.1890322260       11.6714263025        6.8082268749
  H        30.9752996886       22.7918050592        4.0404973957
  H        31.9870104595       24.6703398050        5.3416059134
  H        35.6601524994       24.1860863992        3.1561728983
  H        34.6267937689       22.3155201592        1.8525815041
  H        33.6607269823       23.5960308558        6.7622438842
  H        25.7163619521        8.5915334426        3.4194837659
  H        30.9188227763       22.7702309937       11.9869318242
  H        31.9593568051       24.6007196718       10.6525528342
  H        35.6249502092       24.1033191832       12.8484775275
  H        34.5709081129       22.2617244104       14.1733440358
  H        33.6461567103       23.5706762780        9.2011472399
  H        40.6013548790       17.1097927235       12.6583766307
  H        32.5104575323       14.1377947707        0.2716041160
  H        29.8998081153       12.5330996608       11.9069590006
  H        28.8681264200       10.6347994990       10.6559221393
  H        25.2171459234       11.1764829704       12.8687399133
  H        26.2713273501       13.0700098756       14.1189816209
  H        27.1808450898       11.6876095502        9.2456535260
  H        33.3178163201       14.2546234467       14.4824175576
  H        33.4084227738       14.4191637014        1.6084416470
  H        32.1590406500       18.5280902761       13.2658071946
  H        30.2249360178       14.1856730303        0.0802207738
  H        16.1152193492        2.9569034144        4.1329588888
  H        14.9441195032        4.8098794666        5.3272549291
  H        17.3428760965        7.6846711538        3.2107098297
  H        18.4959394901        5.8213026208        2.0082232102
  H        16.7362094280        5.7307077750        6.7756634175
  H        44.8197757862       32.1316280123        3.9846370290
  H        45.9242395371       30.3297379640        5.3136190713
  H        43.6625317574       27.3724797855        3.1583800875
  H        42.5837466698       29.1874773676        1.8163885752
  H        44.2099096809       29.4222729514        6.7745191099
  H        14.8351993356        8.5391344091        3.3679523953
  H        44.8919103832       32.2215835169       11.9175479535
  H        46.0146893775       30.3974981660       10.6399492970
  H        43.7577692549       27.4733554875       12.8439257162
  H        42.6432203462       29.3099124681       14.1225207051
  H        44.2500820203       29.4545559087        9.2138815880
  H        35.0886758011       26.6115622044       12.6352658125
  H        36.6053549261       35.1303953134        0.1939512774
  H        16.1377845720        3.0081309729       11.9011380080
  H        14.9655712983        4.8487990390       10.6839511540
  H        17.3810112268        7.7453295775       12.7509593928
  H        18.5297871507        5.8939925741       13.9810424615
  H        16.7492153274        5.7474460088        9.2131870041
  H        36.2818607017       34.4820125660       14.2655468800
  H        36.3974164793       34.2056120342        1.5129663624
  H        40.5707692876       33.2056367019       13.1443602430
  H        17.4572210855        1.9442389991       15.9799386425
  H        28.8740807052       19.0611730250        4.4413272315
  H        30.0184190273       19.8024590294       11.7294937436
  H        31.7146208072       15.7677565411       11.6236540699
  H        31.1756815369       15.5799848963        4.5034190700
  H        28.3364011521       17.5434014557        6.6135517367
  H        29.7117669433       15.5555486886        6.5601216702
  H        31.6090445938       19.4538038054        9.6085554422
  H        32.7981080727       16.8706473729        9.7065610662
  H        28.1824259339       17.3993066971       10.6241343315
  H        18.9210487056        0.8417673110        4.3132420397
  H        40.5233262303       35.2333318745       11.9437153451
  H        42.2753075983       34.3564335731       11.6194541475
  H        22.0419807307        0.6314350487        4.2984487938
  H        11.5965435422       18.7141356957        4.3879792731
  H        52.2645053872       18.4308208817       11.6717963866
  H        49.2549626504       16.4774160358       11.5795980973
  H        10.1507449224       15.7981604348        4.2978273810
  H        50.8496038976       17.6922457883       11.9493395558
  H        10.0462472445       17.3944865199        4.0572004882
  H        20.3546538550       -0.0349930163        3.9626256172
  H        39.1756275424       36.1226033047       11.6770284045
 Ni        30.4860715602       17.6415676741       10.9916731739
 Ni        31.2818871425       16.4960175681        7.9950762572
 Ni        29.8413180057       18.7497035159        8.0796051317
 Ni        30.5654003621       17.6492226072        5.3223498734
  O        10.6495706753       14.3653454730       13.4807270003
  O        12.6131771762       14.6573793231       14.5785648905
  O        49.1481426057       16.8459751248       15.9846774394
  O        50.3506685702       20.9346053687       13.6428509938
  O        48.3487921758       20.5929505479       14.6609930501
  O        11.0514767701       17.0539781592       14.4954719750
  O        50.3207080581       20.8818125876        2.4118607891
  O        48.3468053974       20.5863282197        1.3318353159
  O        49.5436476368       18.2485385884        2.0735339572
  O        12.3592026734       18.6246097212        0.0048869788
  O        48.6932910988       14.1485595799       14.7462069845
  O         8.2098728215       14.2102828392        1.3276163088
  O        10.7349967622       14.5070854315        2.6693465782
  O        12.5718493498       14.5826529537        1.3337887989
  O        22.6791314313        2.0510361273       13.3243455939
  O        21.5213354210        3.5975682980       14.5105560249
  O        42.1173231979       34.1381755257       15.9270580392
  O        37.9821185461       33.1402067286       13.5680735340
  O        39.2196351241       31.5779967041       14.6623207775
  O        20.3129254557        1.0322701169       14.5605744769
  O        38.0284506082       33.1897926043        2.4175431226
  O        39.2223076889       31.5854102193        1.3284811783
  O        40.6603926821       33.7692207001        1.9962269507
  O        18.2501407014        1.3842699747        0.0043951823
  O        44.5929508216       35.0223380495       14.7400189505
  O        24.2415054839       -0.0734760239        1.3332157631
  O        22.5906296123        2.0664145920        2.7337842390
  O        21.5747820513        3.6429462796        1.4246577261
  O        27.4894928921       18.7492319971       13.4961894476
  O        26.7608595107       16.9291200163       14.6515141463
  O        30.6648567294       19.4103855058        0.0916012232
  O        33.6592581691       16.2717448141       13.8119814934
  O        34.3093092755       18.2441860387       14.7411619575
  O        29.5707749636       17.0664161660       14.5790040087
  O        33.6162870339       16.3286311852        2.4187827251
  O        34.3055564278       18.2478134065        1.4150310170
  O        31.6587553466       18.3219696030        2.1736496935
  O        30.3189950303       15.1518561810        0.0996344753
  O        28.5462072516       21.0365489505       14.9067099272
  O        28.5100747306       20.9589384188        1.4165732166
  O        27.4529460560       18.6760734139        2.6681452012
  O        26.6910517092       16.9272042425        1.4209039574
  O        13.1484368898       18.6931120991        2.5927117404
  O        13.9194310561       16.9161928728        1.4101500549
  O        50.5960455284       19.3502456972        0.0256553019
  O        47.6839861140       16.3267894708        2.4221994908
  O        46.9518049597       18.1756160503        1.3299414087
  O        11.0695723288       17.0157989832        1.4947723750
  O        47.6764785319       16.3352915205       13.6481355839
  O        46.9297112892       18.2356848468       14.6605054043
  O        49.5687215719       18.3176316490       13.9772294412
  O        10.3185496160       15.1002316339        0.0020629764
  O        52.6706847168       21.0277844985        1.2469473548
  O        12.1469043843       20.8910305426       14.6681319232
  O        13.1087656041       18.6135608206       13.3202289487
  O        13.9577317580       16.9870761357       14.6601453650
  O        29.9925601716       14.4414003499        2.7386583770
  O        28.0886553186       14.6523381125        1.5013416318
  O        32.1415664692       16.8665415945        0.1192230758
  O        30.9544555885       20.9572661309        2.4225242722
  O        32.9207898680       20.6572899888        1.3323948699
  O        29.5656559085       17.0767132897        1.5777052071
  O        30.8435272069       21.0112308681       13.7333581731
  O        32.8753069372       20.5914534693       14.6614056980
  O        31.6926601625       18.2626260559       14.0729549466
  O        28.2474480544       18.6712439216        0.0914687081
  O        32.4935730013       14.2130320307        1.3401302411
  O        32.4070786280       14.2101134650       14.8201559091
  O        29.9246461516       14.4400669757       13.4886926977
  O        28.0406426381       14.5885256672       14.7481082777
  O        17.8918212286        1.9683321608        2.6670197918
  O        18.9527820452        3.5305496510        1.4135302215
  O        39.1692486487       34.1382973172       -0.0030787727
  O        43.2780787654       33.0545270866        2.3344116392
  O        42.0310403963       31.5066205122        1.2425816110
  O        20.3638165468        1.0310888616        1.4163456776
  O        43.2716466739       33.1735380466       13.5545961203
  O        42.0045060733       31.5825548083       14.5759657962
  O        40.5780033451       33.7802172895       13.9249982981
  O        22.5104830211        1.4791110784       -0.0021454163
  O        36.6755209180       35.0996978813        1.2424998655
  O        16.4463936989        0.0646322503       14.6622499683
  O        17.9383472499        2.0430990949       13.3211884268
  O        18.9122326281        3.5949140463       14.6621118405
  O        29.8148972932       18.9920983992       12.2319967894
  O        29.7442332002       18.9790577663        4.0051450941
  O        31.3132640039       16.4129998338       12.2340207859
  O        31.3065837396       16.4051766213        3.9944315304
  O        31.8513649571       16.6381307252        9.7475607140
  O        28.9414711088       16.8547524440       10.3323645996
  O        30.5986308510       15.8961350121        6.3499761716
  O        32.1799915540       18.6749534146        5.5826465031
  O        30.6772352035       19.2686748619        9.8194829397
  O        28.9768944093       18.2429134584        6.3990421846
  O        39.4551544914       35.2461989958       11.9986391339
  O        19.2067871143        0.0009864761        3.9154201736
  O        41.9706431080       35.1595067914       12.0715641516
  O        21.6598048191       -0.1384541768        3.8422734939
  O        51.3649629311       18.6142009114       12.0003769353
  O        10.7509944513       18.7473703825        3.9099788831
  O        50.0795638815       16.4129398952       12.0866416068
  O         9.5249028706       16.4830264270        3.9963753841
 Zr         9.2954739634       16.0528638549       14.1773576485
 Zr        49.8351118695       16.0068106531        1.7516605756
 Zr        22.0670122496        0.0526385491       14.1631404595
 Zr        42.4836499599       35.1534630663        1.7404933451
 Zr        29.5895160972       19.1124746997       14.3403945103
 Zr        29.5730885343       19.1769442463        1.8877042226
 Zr        11.0367184576       19.0525063118        1.8325722496
 Zr        11.0429441204       19.1551107045       14.2463234155
 Zr        31.3481209112       16.1116761305        1.8826448351
 Zr        31.4051143354       16.0245238372       14.3511341097
 Zr        18.6155479013        0.0095258143        1.7636864481
 Zr        18.5045211507       -0.0018431250       14.2166544650
 Zr        12.3002555486       16.3237653027       15.9850457181
 Zr        48.6153121641       18.8329980551        0.0157745539
 Zr        20.3204730013        2.5053241767       15.9922746396
 Zr        40.6478984698       32.6941414170       15.9581455497
 Zr        28.3378968313       16.3435402782        0.0834509063
 Zr        32.6356686795       18.8655899677        0.0897407490
  H        32.7986623566       18.0928745593        6.0758755284
  O        30.7924297790       14.0734344261        8.7480038805
  H        31.7315350637       14.1506563710        8.9924293086
  H        30.3164903753       14.4199412992        9.5249306575
  O        33.0834927506       16.2605715600        7.4870033522
  H        31.2806869521       17.9747420003        7.7397114857
  H        33.1029485783       15.7643100830        6.6501954892
  O        28.3043685139       19.7073305203        8.5218276773
  H        29.8856253935       16.8531025349        8.4448307757
  H        28.5060844981       20.1806667660        9.3509586720
  O        30.8876200547       20.2249016913        7.0783268510
  H        31.5270881348       19.6892789830        6.4285376648
  H        30.2108591333       20.6244180872        6.5016461726
  H        23.4285258865        3.3729672205       -0.0333766809
  H        24.3379045412        2.0853184608       -0.8579469078
  H        24.2871823662        2.1259371951        0.9113431066
