     578
 i =      152, E =     -4812.1500620446
  C        11.8587496025       14.0536734074       13.7364225382
  C        12.4563355453       12.8907743799       13.0180209161
  C        11.7044772985       12.1714360148       12.0768161293
  C        12.2808807471       11.1092260847       11.3844845382
  C        13.6216266230       10.7398554641       11.6118469017
  C        14.3550416974       11.4439388576       12.5847351835
  C        13.7821238739       12.5089384295       13.2762035404
  C        14.2611298730        9.6491140314       10.8385073942
  C        14.2563829030        9.6569302890        9.4168100231
  C        13.7431995924       10.7590580810        8.6629271215
  C        49.1267599284       21.2331756618       13.8745120568
  C        48.5499161695       22.4011639329       13.1474712432
  C        49.3000922902       23.0687513098       12.1667793734
  C        48.7331614577       24.1078999708       11.4335806699
  C        47.4025025006       24.5092449376       11.6619640623
  C        46.6713792149       23.8600834708       12.6751531192
  C        47.2338333474       22.8151618624       13.4044926148
  C        46.7722428615       25.5869401923       10.8646823934
  C        46.7612515248       25.5573502643        9.4429179544
  C        47.2612616547       24.4422666353        8.6994624018
  C        14.8603004586        8.5705634407        8.7035713281
  C        14.8919249584        8.5972068421       11.5151821754
  C        49.1131254086       21.2032540301        2.1503052795
  C        48.5276404641       22.3645926923        2.8776209881
  C        49.2669562462       23.0253692927        3.8704107242
  C        48.6906773407       24.0599375419        4.6019173038
  C        47.3602400253       24.4566488113        4.3637965465
  C        46.6397012772       23.8116517738        3.3404267825
  C        47.2132250430       22.7757394043        2.6086065508
  C        46.7218611432       25.5317020920        5.1547938448
  C        46.7335220638       25.5281090087        6.5765017966
  C        47.2489917589       24.4289300510        7.3329102484
  C        40.6259603013       17.1304902755        7.3315682725
  C        40.6582971388       17.1826928387        4.5222552717
  C        11.8829962160       14.0866365307        2.2905674964
  C        12.4724640079       12.9109672516        2.9950112517
  C        11.7147890378       12.1773532190        3.9206537560
  C        12.2814236607       11.0948979256        4.5890492610
  C        13.6204332822       10.7216206416        4.3576430717
  C        14.3586437248       11.4376932274        3.3974173687
  C        13.7931666007       12.5188679919        2.7247496707
  C        14.2539765504        9.6247535172        5.1279857789
  C        14.2526244148        9.6446200825        6.5498265507
  C        13.7426841020       10.7535463898        7.2968831457
  C        22.5139199278        3.2454247904       13.7466632570
  C        23.2328508498        4.3481313226       13.0449769965
  C        24.2293855277        4.0617125438       12.0998014242
  C        24.8634830753        5.0961901955       11.4161291562
  C        24.5178212820        6.4410387166       11.6563554462
  C        23.5484595171        6.7189286518       12.6377731843
  C        22.9097511119        5.6860712836       13.3201935620
  C        25.1325789148        7.5433951334       10.8797379167
  C        25.1093292748        7.5359488120        9.4575490331
  C        24.4052051605        6.5391376236        8.7101162181
  C        38.3064552192       31.9327904746       13.8424032949
  C        37.5845078333       30.8447244670       13.1262554359
  C        36.6228667799       31.1500215228       12.1515101904
  C        36.0108689264       30.1304733282       11.4287496730
  C        36.3475507373       28.7828302182       11.6606482745
  C        37.2822954071       28.4847815053       12.6695394612
  C        37.8977715944       29.5029394476       13.3914647846
  C        35.7414431729       27.6926988705       10.8673450870
  C        35.7486308645       27.7138184577        9.4464774270
  C        36.4477158939       28.7154958116        8.7020317218
  C        25.7371184258        8.6039435271        8.7379261058
  C        25.7324935057        8.6170912112       11.5502494121
  C        38.3232677485       31.9624785796        2.1580372467
  C        37.5853443055       30.8941651200        2.8930360433
  C        36.6576443517       31.2138456578        3.8966359564
  C        36.0303257063       30.2034075966        4.6227813893
  C        36.3155496377       28.8467586013        4.3696317525
  C        37.2189385980       28.5369855473        3.3343847537
  C        37.8487012553       29.5444314531        2.6091212023
  C        35.6962866553       27.7559620723        5.1587143972
  C        35.7257038774       27.7461924382        6.5807328422
  C        36.4382794425       28.7299982349        7.3357165546
  C        46.1355322093       26.6207853515        7.2866014828
  C        46.0880041043       26.5800952172        4.4787099317
  C        22.4642852861        3.2563408262        2.2620256265
  C        23.1663638651        4.3632188269        2.9813618348
  C        24.1741569795        4.0729244940        3.9150190919
  C        24.8108212949        5.0999533864        4.6079525335
  C        24.4602884884        6.4475932661        4.3906836016
  C        23.4755205687        6.7312367219        3.4253506786
  C        22.8344403471        5.7043775868        2.7324638847
  C        25.0984743834        7.5423213668        5.1649231158
  C        25.0920711518        7.5349003778        6.5878558271
  C        24.3951411493        6.5397544451        7.3433904200
  C        26.6289037771       17.8631550982       13.7783429269
  C        25.3217449348       17.9062919348       13.0536040345
  C        25.0751796606       18.8834149554       12.0761084577
  C        23.8608101028       18.9042699044       11.3922920529
  C        22.8574859824       17.9502487566       11.6602827417
  C        23.1023556092       16.9953671867       12.6655905686
  C        24.3173654925       16.9698620415       13.3488971598
  C        21.5834309611       17.9328930098       10.8966862332
  C        21.5817613201       17.9005010809        9.4739335504
  C        22.7855726095       17.7647781583        8.7129324501
  C        34.3560389673       17.2451609422       13.8228816907
  C        35.6527345683       17.1514872410       13.0930289546
  C        35.8292185595       16.2278806282       12.0507481178
  C        37.0312820543       16.1851224445       11.3480790153
  C        38.0846865460       17.0689820291       11.6586572741
  C        37.9072737548       17.9687154119       12.7275925558
  C        36.7086766454       18.0122108210       13.4334387843
  C        39.3490054348       17.0755935089       10.8880177750
  C        39.3554106506       17.1265559287        9.4663845236
  C        38.1567390792       17.2898344791        8.7025130162
  C        20.3345386865       17.9193811831        8.7660600049
  C        20.3581553904       17.9417647887       11.5790717927
  C        34.4783090318       17.2479214249        2.1783881202
  C        35.7783560377       17.1833920796        2.9049934257
  C        35.9853686304       16.2157005175        3.8995421434
  C        37.1708609451       16.2022384476        4.6282405821
  C        38.1788309184       17.1549196694        4.3820783353
  C        37.9776586167       18.0975020274        3.3563862723
  C        36.7892194646       18.1172901044        2.6311290718
  C        39.4238927725       17.1731600698        5.1803362970
  C        39.3936940770       17.1763219827        6.6013181432
  C        38.1742550912       17.3100736922        7.3365579783
  C        35.0965658621       26.6703421337        7.2917373637
  C        35.0824775393       26.6941297404        4.4830839432
  C        26.5856984789       17.7917491691        2.3690704564
  C        25.2700496681       17.8462067798        3.0654931659
  C        25.0052564943       18.8485773051        4.0107469479
  C        23.7809118188       18.8797193437        4.6716709179
  C        22.7940578242       17.9073968927        4.4136345730
  C        23.0527990052       16.9319030994        3.4334457188
  C        24.2763714350       16.8997950447        2.7684527460
  C        21.5291096947       17.8886056367        5.1840226618
  C        21.5541278088       17.8759765224        6.6056970760
  C        22.7723702939       17.7525034374        7.3467394205
  C        14.0471046613       17.8280450573        2.2949555305
  C        15.3509562135       17.8826175597        3.0216761493
  C        15.6081798955       18.8828772815        3.9723931201
  C        16.8168987252       18.9008802727        4.6660742202
  C        17.8034007833       17.9214441087        4.4317665619
  C        17.5507266250       16.9454194891        3.4490816403
  C        16.3415720080       16.9227690548        2.7569355309
  C        19.0729444805       17.9016167369        5.2005227354
  C        19.0727911067       17.8980859339        6.6232407803
  C        17.8663004682       17.8020439681        7.3856107851
  C        46.8066382290       17.2210532854        2.1664390641
  C        45.5203145761       17.1659687488        2.9184468958
  C        45.3139634119       16.1902065644        3.9058286003
  C        44.1350994147       16.1780686358        4.6466801676
  C        43.1330955216       17.1422365699        4.4221277906
  C        43.3378865869       18.0991824465        3.4096260227
  C        44.5169939087       18.1149006859        2.6695357468
  C        41.8784857243       17.1559853757        5.2079676780
  C        41.8766882565       17.1411656582        6.6300839247
  C        43.0812876440       17.2184119241        7.3974769315
  C        20.3199958918       17.9062139023        7.3311183882
  C        20.2969219135       17.8808446100        4.5175786071
  C        46.7795623004       17.2269325882       13.8864006068
  C        45.4697771584       17.1071164280       13.1800334871
  C        45.2536929559       16.1052788458       12.2209497801
  C        44.0614770445       16.0649089479       11.5008331868
  C        43.0520959874       17.0226056801       11.7214157604
  C        43.2573010117       17.9914875331       12.7220435119
  C        44.4511930816       18.0388243509       13.4367904917
  C        41.8063065233       17.0423351800       10.9187792199
  C        41.8398113874       17.0810690089        9.4973256716
  C        43.0635517871       17.1885864446        8.7638886006
  C        46.1532348394       26.6372201938        8.7211535640
  C        46.1622723869       26.6560421470       11.5307980227
  C        14.0468402045       17.8324782043       13.7039308142
  C        15.3690343863       17.9080360538       13.0153490387
  C        15.6427328931       18.9216207378       12.0846650040
  C        16.8726785884       18.9591343575       11.4312889022
  C        17.8574677750       17.9823063574       11.6823066256
  C        17.5907995822       16.9983582912       12.6518390999
  C        16.3629015440       16.9602105075       13.3087060799
  C        19.1250074809       17.9552485213       10.9129876980
  C        19.0998493879       17.9244413423        9.4914921205
  C        17.8796153425       17.8137810973        8.7516350420
  C        28.8186604244       14.0885347828        2.3650481578
  C        28.2181113473       12.9122483574        3.0593187589
  C        28.9459443360       12.1839932358        4.0118027554
  C        28.3553395311       11.1071184470        4.6692082538
  C        27.0223820965       10.7344855349        4.3995807664
  C        26.3166922153       11.4445887874        3.4115656325
  C        26.9049171450       12.5211079248        2.7525655990
  C        26.3577526691        9.6523614628        5.1630538399
  C        26.3451820946        9.6770341230        6.5843836903
  C        26.8481168438       10.7896422023        7.3305809389
  C        32.1292447313       21.2346619215        2.1946133267
  C        32.6950124723       22.4157101054        2.9096163411
  C        31.9488557044       23.0787696464        3.8963241844
  C        32.5102362872       24.1347810630        4.6091773429
  C        33.8327067389       24.5509448302        4.3589090039
  C        34.5576555008       23.9067857835        3.3389345620
  C        33.9986683570       22.8500725544        2.6255078047
  C        34.4674522094       25.6283801371        5.1501576507
  C        34.4833530114       25.5938787349        6.5713700279
  C        33.9809763607       24.4790207603        7.3148090503
  C        25.7329567672        8.5998425912        7.3029274098
  C        25.7177893815        8.6028824463        4.4897115285
  C        32.1613557040       21.2729581931       13.9575085993
  C        32.7471384646       22.4120353728       13.1918622565
  C        31.9861680348       23.0916926581       12.2280931325
  C        32.5583222217       24.1072195668       11.4655327456
  C        33.9033138086       24.4786647853       11.6552429904
  C        34.6496379459       23.8130596248       12.6464451544
  C        34.0837111277       22.7866423507       13.3982628293
  C        34.5282278678       25.5599602043       10.8587500088
  C        34.5116925140       25.5602434937        9.4374106585
  C        33.9919694506       24.4635216979        8.6812056585
  C        40.6067631457       17.1016875173        8.7659749138
  C        40.5698539158       17.0510315700       11.5750066363
  C        28.7258281662       14.0993239257       13.7753731766
  C        28.1352385577       12.9388938426       13.0481264413
  C        28.8768461668       12.2487191558       12.0765495686
  C        28.3087289464       11.1786553324       11.3894877619
  C        26.9827968272       10.7739379184       11.6449065386
  C        26.2600790858       11.4512959720       12.6454061640
  C        26.8267863021       12.5194228590       13.3372723887
  C        26.3482281748        9.6783784663       10.8732934404
  C        26.3418733198        9.6908913443        9.4510823308
  C        26.8437508465       10.7976316941        8.6962754428
  C        18.1354545869        3.1811219230        2.3222502376
  C        17.4061221713        4.2783113574        3.0207195344
  C        16.3905986314        3.9999386336        3.9484814487
  C        15.7428879009        5.0399073945        4.6119814812
  C        16.0945935667        6.3836787501        4.3721488807
  C        17.0836917779        6.6531992726        3.4080689434
  C        17.7327854254        5.6158751668        2.7429969792
  C        15.4702980994        7.4913504296        5.1352406898
  C        15.4854950624        7.4905535746        6.5569612607
  C        16.1870091835        6.4969237856        7.3101560206
  C        42.9459892830       31.8595449144        2.0781231860
  C        43.6464533258       30.7719208376        2.8219169646
  C        44.5918761633       31.0932334579        3.8081141681
  C        45.1976025183       30.0876693078        4.5557254177
  C        44.8713230042       28.7345770261        4.3407333843
  C        43.9456831141       28.4202696161        3.3273326941
  C        43.3368205779       29.4254132878        2.5793445898
  C        45.4888230813       27.6552617507        5.1439497763
  C        45.4928991076       27.6809248279        6.5656392674
  C        44.8057666449       28.6889570148        7.3122422746
  C        14.8565397010        8.5630394151        7.2693473658
  C        14.8751726119        8.5632402882        4.4566685066
  C        42.9464095851       31.9615286520       13.8039731927
  C        43.6916064808       30.8854247769       13.0905108707
  C        44.6558256906       31.1913460727       12.1178327025
  C        45.2773264390       30.1717699435       11.4000955457
  C        44.9539292197       28.8213986358       11.6380200570
  C        44.0208929477       28.5237408721       12.6492363166
  C        43.3926720429       29.5404897866       13.3614690988
  C        45.5629226293       27.7240189862       10.8527382239
  C        45.5332533176       27.7173787698        9.4314358457
  C        44.8269327949       28.7075720114        8.6784298172
  C        35.1099450982       26.6527708645        8.7261071139
  C        35.1524060159       26.6137361729       11.5350627629
  C        18.1487233267        3.2472136737       13.7015440944
  C        17.4301080263        4.3440026758       12.9924191686
  C        16.4150395775        4.0526842529       12.0686746802
  C        15.7667296920        5.0832794834       11.3932672706
  C        16.1211875349        6.4285650418       11.6161165201
  C        17.1123585890        6.7119842731       12.5735974123
  C        17.7600498333        5.6831130025       13.2534040598
  C        15.4906860138        7.5242086471       10.8436183875
  C        15.4964891723        7.5074584317        9.4224820441
  C        16.1932292079        6.5057536880        8.6757639575
  H        10.6722048437       12.4652650930       11.9001344136
  H        11.6944940113       10.5504173537       10.6582769435
  H        15.3922904976       11.1698478976       12.7659882944
  H        14.3518068982       13.0726680327       14.0110873519
  H        13.3762072587       11.6311732622        9.1962694057
  H        50.3229027210       22.7489057387       11.9822545770
  H        49.3197554197       24.6233671960       10.6762214019
  H        45.6417605846       24.1605843115       12.8580537546
  H        46.6627101290       22.2895926763       14.1662770111
  H        47.6298847232       23.5759493345        9.2411901737
  H        14.8723728430        8.5886066673       12.6034915117
  H        50.2870454126       22.7025604002        4.0651860318
  H        49.2691800899       24.5754444066        5.3653049545
  H        45.6102624928       24.1088473534        3.1514833819
  H        46.6523693275       22.2535173785        1.8371050024
  H        47.6078432483       23.5518337823        6.8020218357
  H        40.6704462169       17.1547696226        3.4343837607
  H        48.6870125472       14.0951793138       15.7948257346
  H        10.6811636113       12.4660989139        4.0976908563
  H        11.6895315416       10.5241664986        5.3013930319
  H        15.3943068192       11.1603296999        3.2119873930
  H        14.3657139632       13.0887123231        1.9967485097
  H        13.3759248646       11.6221719172        6.7582137577
  H        47.9301185841       14.2188254151        1.7158752861
  H        47.7801761951       14.3746727459       14.4900050495
  H        49.0844461452       18.5527484727        2.8725089990
  H        10.4159742856       14.1344222885        0.0037364517
  H        24.4853809248        3.0214571149       11.9113459880
  H        25.6364105477        4.8717547999       10.6842290156
  H        23.2724243451        7.7536265864       12.8303307401
  H        22.1399324606        5.8933131987       14.0596253658
  H        23.8410907531        5.7838422357        9.2495111621
  H        36.3797346765       32.1931409129       11.9639156907
  H        35.2625388440       30.3678027680       10.6758503260
  H        37.5490861665       27.4459984309       12.8526305668
  H        38.6445509862       29.2838363012       14.1508296476
  H        37.0249642561       29.4603087373        9.2422020255
  H        25.7642363888        8.6012306614       12.6382200600
  H        36.4499282050       32.2607613190        4.1058527247
  H        35.3075058014       30.4582438225        5.3947169311
  H        37.4509020480       27.4936253718        3.1309120181
  H        38.5692272376       29.3088154514        1.8295539627
  H        37.0094864415       29.4853201017        6.8038130090
  H        46.1094871509       26.5874463013        3.3906761959
  H        44.6682086863       35.1160962973       15.8088715854
  H        24.4492116192        3.0335382704        4.0794344258
  H        25.5952961838        4.8668625975        5.3248105928
  H        23.1926074996        7.7668915643        3.2480902542
  H        22.0586234949        5.9216034680        2.0018289801
  H        23.8227239840        5.7854224699        6.8113603843
  H        44.9534267862       34.3900207783        1.7000225342
  H        44.9011595331       34.2065768979       14.4855460896
  H        40.6650967713       33.2087605849        2.8580484509
  H        23.1510369242        1.9577406836        0.0098590743
  H        25.8493517175       19.6178119111       11.8647210641
  H        23.6760022309       19.6687253903       10.6406111374
  H        22.3408799124       16.2489289752       12.8824256212
  H        24.5148867052       16.2188161573       14.1101794577
  H        23.7266815593       17.6406215335        9.2406841858
  H        35.0102588198       15.5594530372       11.7933676013
  H        37.1658556580       15.4591072953       10.5494506255
  H        38.7096514346       18.6608199379       12.9745086551
  H        36.5591419002       18.7218112372       14.2436805639
  H        37.2160482076       17.4308764573        9.2263963746
  H        20.3653173135       17.9896569479       12.6666355750
  H        35.1980616765       15.4922758407        4.0979204094
  H        37.3296816760       15.4498292743        5.3975090091
  H        38.7490890364       18.8397349399        3.1618063160
  H        36.6125816214       18.8632700616        1.8598892474
  H        37.2472740531       17.4632582232        6.7913237010
  H        35.0401298622       26.7219250630        3.3958743707
  H        28.5013763624       21.0801710733       15.9841518071
  H        25.7692248963       19.5958063294        4.2123160238
  H        23.5758373277       19.6600358738        5.4012822467
  H        22.2988846800       16.1747512572        3.2280114848
  H        24.4922124870       16.1344499584        2.0268851171
  H        23.7036239969       17.6185681285        6.8043317149
  H        28.9636384569       21.7221445575        1.7960847820
  H        29.1698809908       21.7484955007       14.6443855708
  H        32.1125290848       18.4815553861        2.9956503557
  H        27.3986717479       19.0743203427        0.1127501427
  H        14.8504982791       19.6422650525        4.1524252053
  H        17.0121184730       19.6832201362        5.3964007661
  H        18.3014084963       16.1811185625        3.2585661082
  H        16.1358448979       16.1557084938        2.0141247465
  H        16.9231457517       17.6867977602        6.8594151062
  H        46.0940859327       15.4540510298        4.0849811876
  H        43.9747138601       15.4121411879        5.4022377010
  H        42.5726797573       18.8521715973        3.2328239577
  H        44.6911650817       18.8673175409        1.9039481491
  H        44.0270362034       17.3334508553        6.8755565792
  H        20.2904267434       17.9130620172        3.4294964335
  H        46.0369599194       15.3728817910       12.0389859693
  H        43.9013736180       15.2882236154       10.7560909665
  H        42.4844724276       18.7360054479       12.9017779214
  H        44.6279733391       18.8083106058       14.1844313969
  H        43.9957668667       17.2795966990        9.3137591924
  H        46.1991462642       26.6825574977       12.6182432564
  H        52.7413038563       21.0627286988        0.1998205454
  H        14.8815957823       19.6738914519       11.8895861317
  H        17.0832060700       19.7480588126       10.7123955181
  H        18.3421886693       16.2378330609       12.8541590882
  H        16.1424574752       16.1870907658       14.0407479864
  H        16.9463751475       17.7074732909        9.2964656203
  H        52.3230610423       21.6734609940       14.2888913365
  H        52.0134509334       21.7022159159        1.5008035391
  H        49.0663523593       18.6067342236       13.1990048461
  H        13.2478088982       19.0160125073       15.9725034153
  H        29.9708303014       12.4807465580        4.2237283351
  H        28.9216715588       10.5411832604        5.4057077650
  H        25.2865700728       11.1687284796        3.1956051603
  H        26.3558206377       13.0900660341        2.0063923677
  H        27.2097236621       11.6599452206        6.7911048566
  H        30.9329765045       22.7463463075        4.0984646073
  H        31.9265916727       24.6506778085        5.3685443255
  H        35.5807690038       24.2191681770        3.1401945886
  H        34.5637488728       22.3280734155        1.8569943911
  H        33.6105694863       23.6148501594        6.7714033428
  H        25.7459616435        8.5847596598        3.4016204966
  H        30.9460535599       22.8093825490       12.0826461840
  H        31.9619671026       24.6329889805       10.7229423578
  H        35.6911624488       24.0895498680       12.7970165952
  H        34.6649190804       22.2483944706       14.1433253051
  H        33.6284324822       23.5889038499        9.2134241083
  H        40.5564136570       16.9899702156       12.6616495143
  H        32.5029853261       14.1833929488        0.1783223807
  H        29.8995865722       12.5612334401       11.8778671395
  H        28.8917384696       10.6393237811       10.6461954780
  H        25.2339569880       11.1525773176       12.8497245484
  H        26.2644079202       13.0575114397       14.0967070880
  H        27.2012825808       11.6746270431        9.2277086929
  H        33.2489795805       14.2545023080       14.3250714307
  H        33.4175947936       14.3879344349        1.5207280904
  H        32.0115991649       18.6268210826       13.1455420009
  H        30.2209471005       14.1995321398        0.0412324599
  H        16.1186389200        2.9634380087        4.1350326195
  H        14.9535787672        4.8205096971        5.3277902625
  H        17.3659323681        7.6860923016        3.2147560157
  H        18.5146023733        5.8186175723        2.0149368846
  H        16.7536267509        5.7396055056        6.7766926092
  H        44.8280706247       32.1403133009        3.9824254710
  H        45.9373811122       30.3414016011        5.3117612695
  H        43.6831634868       27.3781851984        3.1570465757
  H        42.6003136375       29.1900464409        1.8145880444
  H        44.2304514557       29.4367392142        6.7739204370
  H        14.8515215698        8.5466269215        3.3684427385
  H        44.8991252584       32.2340382165       11.9261470736
  H        46.0239787729       30.4130122469       10.6466133782
  H        43.7643471708       27.4839754067       12.8411658235
  H        42.6466435716       29.3176333479       14.1203588121
  H        44.2683593735       29.4704474968        9.2129581956
  H        35.1317958855       26.6210280517       12.6231365456
  H        36.6049886527       35.1343209456        0.1856697559
  H        16.1440600334        3.0131023611       11.8988401323
  H        14.9745154448        4.8563996050       10.6830722116
  H        17.3956852340        7.7474781651       12.7506323464
  H        18.5427887701        5.8936662750       13.9782868614
  H        16.7647123009        5.7555323925        9.2141712466
  H        36.2783293463       34.4831311225       14.2680526813
  H        36.3807545046       34.2094702281        1.5048502377
  H        40.5818245641       33.2039193956       13.1485283134
  H        17.4710448838        1.9479877970       15.9692160021
  H        28.7617644136       18.7011228681        4.3183401648
  H        29.9837241041       20.1575671700       11.7632660117
  H        32.0122406833       16.2617278466       10.4039087932
  H        31.6925223760       15.6907413929        4.5983857467
  H        28.8540265449       16.7441414103        6.8408764135
  H        31.7121424977       13.6335123851        8.0424620972
  H        31.2128860815       19.6655029608        9.3741812140
  H        33.1016034182       16.9931562783        9.5257483381
  H        29.1488478712       16.5814507038        9.2017096031
  H        18.8534842789        0.8691500255        4.3403333290
  H        40.5277374844       35.2291369306       11.9468187143
  H        42.3247223526       34.4193570263       11.5852674460
  H        22.0876660736        0.6919851953        4.3569706553
  H        11.5970527089       18.7130264158        4.3873277680
  H        52.2652583536       18.4311671033       11.6725148004
  H        49.2550738101       16.4772945263       11.5793716196
  H        10.1511224848       15.7982335577        4.2974458468
  H        50.8503473613       17.6926246721       11.9490861263
  H        10.0465901144       17.3946317621        4.0569733851
  H        20.2145696038        0.0021588789        4.0471982815
  H        39.1835934780       36.1244362910       11.6811344896
  H        32.7518569339       17.8470636590        6.6522595388
 Ni        30.2251233739       18.0868022989       10.7403869068
 Ni        31.7474763654       16.1257186693        7.8307340281
 Ni        29.7198144409       18.6232067888        7.8363133164
 Ni        30.3110674910       17.2054387285        5.2439788955
  O        10.6499230541       14.3651678516       13.4807027811
  O        12.6131816197       14.6575332130       14.5787892605
  O        49.1476271851       16.8458991926       15.9843856957
  O        50.3501337842       20.9360155929       13.6429360323
  O        48.3484412905       20.5932640271       14.6607500649
  O        11.0514739936       17.0539513456       14.4956167242
  O        50.3208486472       20.8815912327        2.4119573328
  O        48.3466957960       20.5866287422        1.3320713422
  O        49.5437657099       18.2484144521        2.0731355381
  O        12.3591289478       18.6246639539        0.0047724780
  O        48.6931748215       14.1486812046       14.7461174780
  O         8.2098641299       14.2104225113        1.3276656452
  O        10.7353214531       14.5067402758        2.6694534028
  O        12.5718265071       14.5828378341        1.3335979528
  O        22.8452158215        2.0435960132       13.4818619980
  O        21.6072912246        3.5936456548       14.5830024734
  O        42.0583413762       34.1375734840       15.9740543672
  O        37.9823093901       33.1405855574       13.5680923404
  O        39.2188098930       31.5772682191       14.6624003286
  O        20.3087412743        1.0403976897       14.4972126295
  O        38.0248234465       33.1869303075        2.4197569632
  O        39.2175642542       31.5826226083        1.3330567506
  O        40.6523212872       33.7694423831        2.0654187088
  O        18.2555924466        1.3766115498        0.0019450682
  O        44.6222108243       35.1005304412       14.7536598629
  O        24.2054278484        0.0000322622        1.3259092250
  O        22.7534226250        2.0577810084        2.5890501535
  O        21.6254723731        3.5971547923        1.3494548185
  O        27.5042271277       18.7515836999       13.4922262031
  O        26.7683543399       16.9331116245       14.6517576495
  O        30.6619953204       19.4091580146        0.0903570641
  O        33.4278673975       16.4176115001       13.4900520710
  O        34.2655975778       18.1531858237       14.7178831476
  O        29.5577464010       17.0866509737       14.5722246377
  O        33.6251660626       16.3256030267        2.4005834890
  O        34.3003353434       18.2527065094        1.4049439452
  O        31.6571559975       18.3119328486        2.1540916565
  O        30.3178069569       15.1655013091        0.0656493671
  O        28.5518702007       21.0402284683       14.9057923119
  O        28.5131762531       20.9477593133        1.4195880657
  O        27.4986097513       18.6090511421        2.7423297655
  O        26.6942787064       16.9329578147        1.4225922084
  O        13.1492990407       18.6927544123        2.5926599789
  O        13.9194772308       16.9162071611        1.4101947062
  O        50.5959853778       19.3500556337        0.0252052464
  O        47.6832699438       16.3271485443        2.4225019606
  O        46.9518890442       18.1759358838        1.3294870446
  O        11.0699089382       17.0154587971        1.4946772150
  O        47.6742686840       16.3357932068       13.6475682907
  O        46.9231811034       18.2353509589       14.6570604102
  O        49.5684760464       18.3177099117       13.9769721518
  O        10.3186448169       15.1002698007        0.0021606348
  O        52.6707317297       21.0278394712        1.2469154777
  O        12.1468154994       20.8911847412       14.6681554345
  O        13.1086315851       18.6135597451       13.3204250388
  O        13.9575000759       16.9872036562       14.6601900637
  O        30.0078845566       14.4398102688        2.6677603194
  O        28.0802300853       14.6589837051        1.4895283461
  O        32.0842409823       16.8781594361        0.0380223002
  O        30.9345061795       20.8834972628        2.5001808129
  O        32.8960687278       20.6578260330        1.3472230256
  O        29.5707595354       17.0729181835        1.5817070409
  O        30.9137836097       21.0372153301       13.8225188010
  O        32.9636415142       20.5817437225       14.6721977679
  O        31.6442085339       18.3176306570       13.9904998484
  O        28.2854748680       18.6783149543        0.0985831398
  O        32.4962989557       14.2160345823        1.2516888334
  O        32.3671708110       14.2867755365       14.7317548870
  O        29.8774993885       14.5203892115       13.3998540170
  O        28.0444016021       14.5850408994       14.7407825217
  O        17.8892592553        1.9666840681        2.6678800588
  O        18.9564053552        3.5271545706        1.4130613745
  O        39.1686892864       34.1389384659        0.0024971731
  O        43.2802716815       33.0590228744        2.3368043345
  O        42.0345050443       31.5064941305        1.2468515124
  O        20.3179677780        1.0371055384        1.4849435373
  O        43.2760136822       33.1825323152       13.5698370767
  O        42.0051837693       31.5841190188       14.5780023168
  O        40.5793320855       33.7755308471       13.9314179296
  O        22.3675318857        1.3850263398        0.0030628023
  O        36.6727759215       35.0999709364        1.2383168803
  O        16.4455839328        0.0646397413       14.6633187136
  O        17.9365506453        2.0435370873       13.3213488663
  O        18.9193711349        3.5931571758       14.6608708639
  O        29.9920356779       19.2709630313       12.1646499176
  O        29.7238690788       18.8214263889        4.1648775806
  O        30.8005049430       16.5625590052       11.8339162598
  O        31.4807827981       16.4285830321        3.9754675233
  O        32.6639490377       16.1268395289        9.6535049988
  O        29.9441512059       17.1387890954        9.0815210116
  O        30.8782134327       15.8181841421        6.2619849621
  O        32.4509766336       17.8060703163        7.5766663894
  O        30.2454319630       19.5615111261        9.4760484120
  O        28.9726339347       17.6440249699        6.4729798425
  O        39.4567480472       35.2438786682       11.9968835714
  O        19.1412924355        0.0046079196        3.9956774736
  O        41.9696333158       35.1727250635       12.0821558406
  O        21.6913177250       -0.0693614539        3.9011412917
  O        51.3652825334       18.6143421091       12.0003034948
  O        10.7511492426       18.7471691868        3.9099125876
  O        50.0794876045       16.4127643376       12.0866207355
  O         9.5250092774       16.4830214919        3.9962729072
 Zr         9.2970765263       16.0530388260       14.1771969182
 Zr        49.8367386139       16.0067512936        1.7514179917
 Zr        22.0732915167        0.0303057397       14.1839443993
 Zr        42.4609773367       35.1537644319        1.8063392368
 Zr        29.6003099385       19.1392701693       14.3013829983
 Zr        29.5881208036       19.1589458000        1.8984370748
 Zr        11.0385391394       19.0517825974        1.8327071230
 Zr        11.0444474016       19.1547988151       14.2456882683
 Zr        31.3575697444       16.0940734512        1.8593372921
 Zr        31.3378912454       16.0849687388       14.2226220268
 Zr        18.6013078788       -0.0007384122        1.7683632351
 Zr        18.5066292178       -0.0065905613       14.2090337022
 Zr        12.3029902852       16.3238364820       15.9850622608
 Zr        48.6163164582       18.8328966948        0.0143610241
 Zr        20.3160453884        2.4745600226       15.9855380290
 Zr        40.6438874433       32.6874823751       15.9740150014
 Zr        28.3390992499       16.3455582116        0.0888849766
 Zr        32.6295622079       18.8546083327        0.0629643225
  O        29.9852557136       20.1425132068        6.5702618142
  H        30.9266949169       20.3655263827        6.6832358647
  H        29.9311438285       19.7555464116        5.6319195486
  O        30.9965787791       14.2835543930        8.1538692878
  H        30.6307976650       14.4698615166        7.2239310840
  H        30.1513814395       15.8412169879       11.7282338615
