     575
 i =      135, E =     -4794.9105485474
  C        11.8589596192       14.0535135870       13.7363612074
  C        12.4564600467       12.8907313423       13.0180302479
  C        11.7045337191       12.1712382706       12.0769654224
  C        12.2809906476       11.1090551215       11.3846796712
  C        13.6218263440       10.7398518092       11.6118897276
  C        14.3552920596       11.4441178997       12.5846161206
  C        13.7823545253       12.5090918131       13.2760805473
  C        14.2612961233        9.6491190704       10.8385380977
  C        14.2563255349        9.6569073858        9.4168510707
  C        13.7430624569       10.7590148705        8.6629904524
  C        49.1271158107       21.2331028049       13.8744877821
  C        48.5504230039       22.4012388390       13.1474994015
  C        49.3003149600       23.0682590292       12.1662169008
  C        48.7334395676       24.1074765768       11.4330504574
  C        47.4030894492       24.5094963827       11.6620558699
  C        46.6723572781       23.8610665495       12.6760173157
  C        47.2347613001       22.8160944381       13.4052999577
  C        46.7727252016       25.5871134568       10.8647773597
  C        46.7613633773       25.5573326657        9.4430174164
  C        47.2612399491       24.4422090724        8.6995248645
  C        14.8602485766        8.5705765689        8.7035783561
  C        14.8922859537        8.5973115368       11.5151933777
  C        49.1133961769       21.2033634062        2.1504076749
  C        48.5280298278       22.3648487244        2.8776146114
  C        49.2670955260       23.0251225923        3.8709215222
  C        48.6908560881       24.0597385934        4.6024054080
  C        47.3606603650       24.4569878227        4.3638141556
  C        46.6404929142       23.8126427845        3.3397529299
  C        47.2139663960       22.7766974196        2.6079581323
  C        46.7221615195       25.5319197315        5.1548622656
  C        46.7335276307       25.5281040957        6.5765761368
  C        47.2489436810       24.4288875868        7.3329713390
  C        40.6330074959       17.1416607110        7.3287471897
  C        40.6606366344       17.1840093203        4.5199418794
  C        11.8832126970       14.0865562822        2.2907381622
  C        12.4726607824       12.9110662781        2.9951383397
  C        11.7149393805       12.1772347617        3.9206057164
  C        12.2816552769       11.0948310261        4.5889645181
  C        13.6207807998       10.7218108501        4.3577175630
  C        14.3590748839       11.4381277961        3.3977351696
  C        13.7935111318       12.5192407641        2.7250738419
  C        14.2543217163        9.6249583257        5.1280327978
  C        14.2526458089        9.6446956244        6.5498585793
  C        13.7425932185       10.7535468065        7.2969492114
  C        22.5115241806        3.2456950146       13.7463991685
  C        23.2230141606        4.3512249232       13.0442290274
  C        24.2179526075        4.0723489856       12.0953313491
  C        24.8422445646        5.1123600483       11.4113040482
  C        24.4874040414        6.4542825543       11.6547885732
  C        23.5205102947        6.7244797722       12.6406275701
  C        22.8918737059        5.6864586744       13.3235048488
  C        25.0909299027        7.5620510009       10.8785281090
  C        25.0680012914        7.5540849428        9.4564942105
  C        24.3745072939        6.5505944620        8.7079820049
  C        38.3028197611       31.9320775619       13.8459386228
  C        37.5718014039       30.8429242000       13.1382798180
  C        36.6073058862       31.1475783435       12.1660491103
  C        35.9890453862       30.1274644918       11.4490672464
  C        36.3222595044       28.7793415590       11.6834519223
  C        37.2571302619       28.4817741184       12.6923316314
  C        37.8788467158       29.5007096490       13.4085914263
  C        35.7194077627       27.6891742460       10.8863553238
  C        35.7440132237       27.7095682308        9.4652395782
  C        36.4477791752       28.7136722191        8.7282391264
  C        25.6873002586        8.6271671446        8.7375761901
  C        25.6828791314        8.6395570573       11.5501782920
  C        38.3287263733       31.9640073217        2.1613902656
  C        37.6029646417       30.8948321909        2.9057925856
  C        36.6748974674       31.2124277861        3.9092766056
  C        36.0573370382       30.2002925677        4.6412061184
  C        36.3534612289       28.8455549459        4.3919851075
  C        37.2602239154       28.5377122126        3.3593646925
  C        37.8803136227       29.5466589172        2.6290579466
  C        35.7367211084       27.7518402569        5.1768625382
  C        35.7524642388       27.7419805255        6.5987806942
  C        36.4522388172       28.7288908291        7.3617253613
  C        46.1354641165       26.6207151868        7.2867229261
  C        46.0884420582       26.5804338641        4.4788187532
  C        22.4641155019        3.2565772329        2.2617755524
  C        23.1643303234        4.3641995431        2.9801663143
  C        24.1704719463        4.0767696840        3.9165447726
  C        24.8037939363        5.1059514138        4.6093424288
  C        24.4513257423        6.4525931035        4.3891126965
  C        23.4690640329        6.7332181181        3.4203566193
  C        22.8312882821        5.7044710390        2.7276961979
  C        25.0814685159        7.5509157563        5.1644718377
  C        25.0638051946        7.5479494780        6.5871657039
  C        24.3706432012        6.5491027297        7.3412027509
  C        26.6240303308       17.8615740491       13.7815749900
  C        25.3161782159       17.9011346094       13.0569080398
  C        25.0632039738       18.8812021333       12.0841031621
  C        23.8501564955       18.8962889782       11.3978832522
  C        22.8532811148       17.9344591945       11.6614052686
  C        23.1034775123       16.9770587348       12.6627253000
  C        24.3182624826       16.9564087873       13.3467796035
  C        21.5795470974       17.9145709002       10.8976087954
  C        21.5787405331       17.8793845486        9.4752086582
  C        22.7827901033       17.7391870878        8.7154523154
  C        34.4224799408       17.2241274710       13.9082058640
  C        35.7120372373       17.1613129388       13.1582917483
  C        35.9144563790       16.1883840233       12.1664999192
  C        37.0964774023       16.1689242350       11.4298793714
  C        38.1094333132       17.1188159691       11.6683897692
  C        37.9089420527       18.0711381150       12.6855299217
  C        36.7243411662       18.0972876506       13.4174352766
  C        39.3676429313       17.1222586763       10.8877665315
  C        39.3682477851       17.1444908808        9.4665847079
  C        38.1641090889       17.2706214924        8.7046801689
  C        20.3321748284       17.9000682706        8.7665215791
  C        20.3545315542       17.9267215834       11.5796517410
  C        34.4810027575       17.2489768140        2.1804622418
  C        35.7861835437       17.1800056606        2.9012192680
  C        36.0031171298       16.1934415183        3.8745830286
  C        37.1881054532       16.1780117928        4.6045645264
  C        38.1833826742       17.1488255254        4.3805494499
  C        37.9732421194       18.1104695874        3.3749696491
  C        36.7859460801       18.1306357838        2.6475467094
  C        39.4276444026       17.1682399245        5.1799192074
  C        39.3990944761       17.1702055863        6.6006520141
  C        38.1783738414       17.2812421940        7.3382974270
  C        35.1209175557       26.6632665834        7.3025721915
  C        35.1348925210       26.6881182670        4.4937343334
  C        26.5847984568       17.7906583582        2.3663281061
  C        25.2692872733       17.8385206800        3.0656178257
  C        25.0088681660       18.8299731994        4.0232199289
  C        23.7846598350       18.8575705201        4.6845408616
  C        22.7946195945       17.8913692110        4.4158879365
  C        23.0503753862       16.9252736519        3.4258143158
  C        24.2735054317       16.8975204131        2.7595600327
  C        21.5294429683       17.8698226425        5.1855659161
  C        21.5530697258       17.8531365636        6.6072717487
  C        22.7704130949       17.7250442612        7.3492408370
  C        14.0474447840       17.8274952942        2.2951685384
  C        15.3511855492       17.8799740439        3.0216493885
  C        15.6101013935       18.8782557200        3.9740046630
  C        16.8189917851       18.8930066389        4.6674836000
  C        17.8039217396       17.9123141498        4.4314190153
  C        17.5497576764       16.9387312124        3.4466963915
  C        16.3404997287       16.9192348052        2.7548231026
  C        19.0730405163       17.8881210722        5.2006593379
  C        19.0717476784       17.8820299023        6.6232724978
  C        17.8646407543       17.7879556703        7.3849193185
  C        46.8078967159       17.2212446653        2.1654879246
  C        45.5213521597       17.1675359747        2.9168165046
  C        45.3146081208       16.1935379844        3.9055038186
  C        44.1356246600       16.1840743423        4.6458892687
  C        43.1352309733       17.1487869945        4.4179149517
  C        43.3399717153       18.1036968604        3.4040089425
  C        44.5195405257       18.1170421310        2.6649885464
  C        41.8815324272       17.1642935810        5.2039009236
  C        41.8823817628       17.1575903321        6.6254115645
  C        43.0886436804       17.2469374939        7.3889149235
  C        20.3185420949       17.8861936928        7.3317208803
  C        20.2974446583       17.8665791244        4.5185532307
  C        46.7835604302       17.2299196141       13.8860489501
  C        45.4767531739       17.1209598852       13.1753451630
  C        45.2566818473       16.1233932321       12.2135527340
  C        44.0667620873       16.0961735697       11.4899603141
  C        43.0669061706       17.0630075653       11.7117679849
  C        43.2762258976       18.0285544045       12.7140386534
  C        44.4676106757       18.0625235616       13.4320870753
  C        41.8219887459       17.0896482979       10.9117600640
  C        41.8520645735       17.1170575399        9.4909253457
  C        43.0743188775       17.2252937522        8.7551908669
  C        46.1532105357       26.6371504348        8.7212843662
  C        46.1629724866       26.6563564549       11.5308939462
  C        14.0462316723       17.8316329224       13.7036843208
  C        15.3675527683       17.9047188107       13.0146515821
  C        15.6422098203       18.9164228545       12.0822854848
  C        16.8719461027       18.9507952682       11.4286246726
  C        17.8548591831       17.9725913520       11.6813059457
  C        17.5873320110       16.9907624892       12.6526008743
  C        16.3597267451       16.9556574748       13.3096689752
  C        19.1220745810       17.9417587184       10.9125394250
  C        19.0972438428       17.9089039241        9.4912481903
  C        17.8771001111       17.8000422598        8.7509409728
  C        28.8102050094       14.0873595569        2.3683266901
  C        28.2056008274       12.9167906962        3.0640659623
  C        28.9063114677       12.2312935442        4.0668130853
  C        28.3114319051       11.1552220123        4.7204999212
  C        26.9998512040       10.7464563919        4.4028766590
  C        26.3218937455       11.4170661560        3.3683922070
  C        26.9153904433       12.4901593261        2.7096076477
  C        26.3276558441        9.6691928232        5.1646160246
  C        26.2958273003        9.7027544400        6.5858424717
  C        26.7763073925       10.8252368152        7.3324916094
  C        32.1551141823       21.2693038622        2.1518867477
  C        32.7369016441       22.4395078562        2.8746745327
  C        31.9882705977       23.1047182790        3.8580977879
  C        32.5559301807       24.1458260703        4.5875353293
  C        33.8859683917       24.5469995356        4.3536743739
  C        34.6146779526       23.9000064725        3.3383157399
  C        34.0500121040       22.8550557772        2.6106604676
  C        34.5178680190       25.6197844170        5.1535125544
  C        34.5199869374       25.5851067680        6.5744485167
  C        34.0141244348       24.4681315820        7.3116512352
  C        25.6897140493        8.6211338114        7.3028688298
  C        25.7022874831        8.6110186260        4.4905614698
  C        32.1047932532       21.2330198321       13.8834701433
  C        32.6978429345       22.3827948229       13.1379720895
  C        31.9590971915       23.0489415570       12.1478653166
  C        32.5385962775       24.0782661807       11.4099579981
  C        33.8704246425       24.4719675119       11.6454466980
  C        34.5924504950       23.8192736805       12.6627798345
  C        34.0175873970       22.7838330587       13.3953165317
  C        34.5071014821       25.5553731266       10.8624708287
  C        34.5133770467       25.5527197793        9.4409134682
  C        34.0100940629       24.4526528024        8.6778652371
  C        40.6174075741       17.1241350288        8.7627349203
  C        40.5885033170       17.1108728374       11.5723276807
  C        28.7182678869       14.0971807361       13.7781526651
  C        28.1109042268       12.9479915295       13.0457657906
  C        28.8434661361       12.2487081353       12.0741302895
  C        28.2619499974       11.1872160186       11.3851595739
  C        26.9319116049       10.7977161521       11.6425365987
  C        26.2174330439       11.4832528157       12.6429979437
  C        26.7970898654       12.5451038894       13.3341246664
  C        26.2907356539        9.7047203284       10.8731353622
  C        26.2809318080        9.7192946905        9.4513628027
  C        26.7690360773       10.8327766926        8.6981374427
  C        18.1354827602        3.1813135994        2.3223280478
  C        17.4064207130        4.2785097533        3.0209794312
  C        16.3901139424        4.0002807651        3.9479205124
  C        15.7424972831        5.0403347503        4.6113698751
  C        16.0951176750        6.3839827535        4.3722415044
  C        17.0851698923        6.6534153454        3.4091462540
  C        17.7341607710        5.6159929253        2.7441234447
  C        15.4707040054        7.4916319920        5.1352913211
  C        15.4856190475        7.4907040769        6.5570014009
  C        16.1870758053        6.4969996925        7.3101427063
  C        42.9460294271       31.8597334005        2.0780301476
  C        43.6465731851       30.7720185837        2.8219505442
  C        44.5916441387       31.0934190218        3.8084179740
  C        45.1974146486       30.0879063098        4.5561084121
  C        44.8715182304       28.7347842060        4.3408546831
  C        43.9463031369       28.4203836111        3.3270937689
  C        43.3374232010       29.4254836343        2.5790487372
  C        45.4889911173       27.6554424514        5.1440720341
  C        45.4928092158       27.6808609135        6.5657745490
  C        44.8056733080       28.6888696470        7.3124095933
  C        14.8565379213        8.5631145166        7.2693719798
  C        14.8757552651        8.5635870912        4.4567060569
  C        42.9465260741       31.9618463727       13.8039292842
  C        43.6919235944       30.8856516956       13.0904989970
  C        44.6560120429       31.1916039621       12.1177365743
  C        45.2776258042       30.1720361414       11.4000350520
  C        44.9544532828       28.8216747542       11.6381726929
  C        44.0216714268       28.5239862336       12.6496031309
  C        43.3933483516       29.5407261476       13.3617725201
  C        45.5633590500       27.7242183019       10.8528979592
  C        45.5332958561       27.7173333775        9.4315989583
  C        44.8269234329       28.7074965346        8.6785980801
  C        35.1173489741       26.6464303349        8.7369790677
  C        35.1204360755       26.6110598434       11.5468246850
  C        18.1487296724        3.2472862175       13.7014465409
  C        17.4303356140        4.3440379051       12.9921045043
  C        16.4146924681        4.0528276831       12.0689645402
  C        15.7664072557        5.0834830107       11.3936307869
  C        16.1215560424        6.4286601080       11.6159870569
  C        17.1134556139        6.7120241481       12.5727043842
  C        17.7611009495        5.6830722898       13.2524280391
  C        15.4909294145        7.5242970828       10.8435750543
  C        15.4965442912        7.5075200701        9.4224483326
  C        16.1932645056        6.5057891942        8.6757474401
  H        10.6722020270       12.4648985107       11.9003850329
  H        11.6946162919       10.5501070701       10.6585709957
  H        15.3926179532       11.1702106771       12.7657134154
  H        14.3521655059       13.0729154961       14.0107893725
  H        13.3761454021       11.6311666104        9.1963226634
  H        50.3228959692       22.7479429577       11.9812145650
  H        49.3199009733       24.6225218171       10.6752994894
  H        45.6431124864       24.1623900815       12.8596570843
  H        46.6640118517       22.2911844337       14.1678135524
  H        47.6300422038       23.5759522484        9.2412223087
  H        14.8730523164        8.5888250608       12.6035093699
  H        50.2870083971       22.7019577827        4.0660524552
  H        49.2692404506       24.5748784499        5.3661326001
  H        45.6113567185       24.1105056578        3.1502187035
  H        46.6534356352       22.2550423267        1.8358424744
  H        47.6079386213       23.5518541445        6.8020801261
  H        40.6708360689       17.1553218350        3.4320953806
  H        48.6872688930       14.0950923697       15.7949538705
  H        10.6812196573       12.4657134849        4.0974891670
  H        11.6897975796       10.5238708664        5.3011498555
  H        15.3948514666       11.1610494473        3.2125029567
  H        14.3661778651       13.0892541064        1.9973050906
  H        13.3759540901       11.6222404921        6.7583128836
  H        47.9303652345       14.2183963534        1.7161267462
  H        47.7801608217       14.3743648508       14.4903774134
  H        49.0855833201       18.5531046324        2.8729486799
  H        10.4165950968       14.1342695574        0.0038827702
  H        24.4802607514        3.0341265757       11.9043668015
  H        25.6143508242        4.8950458226       10.6764330969
  H        23.2386520959        7.7571005871       12.8357565949
  H        22.1236030106        5.8868753106       14.0662985346
  H        23.8142956736        5.7914738696        9.2460076967
  H        36.3677054606       32.1908553778       11.9746529982
  H        35.2402635512       30.3652814052       10.6967252594
  H        37.5208456828       27.4427958897       12.8788198673
  H        38.6267505646       29.2813625467       14.1668338464
  H        37.0161216302       29.4608950410        9.2744037767
  H        25.7172895445        8.6221461925       12.6380431427
  H        36.4585554727       32.2587290367        4.1127139617
  H        35.3321132202       30.4519505916        5.4119008449
  H        37.5007499409       27.4952711102        3.1613805915
  H        38.6027593181       29.3146081152        1.8502816245
  H        37.0253763826       29.4871301806        6.8359338830
  H        46.1103369239       26.5881155079        3.3907946604
  H        44.6684801520       35.1163821445       15.8088691612
  H        24.4467620243        3.0380972029        4.0833536009
  H        25.5867501546        4.8755225088        5.3287214230
  H        23.1855206691        7.7682982598        3.2408480319
  H        22.0571053251        5.9193246303        1.9946889068
  H        23.8071442275        5.7889870996        6.8078812305
  H        44.9544237189       34.3908364125        1.7005269538
  H        44.9021958439       34.2070484325       14.4854946337
  H        40.6667138678       33.2100718043        2.8586400605
  H        23.1504953549        1.9587039310        0.0096591635
  H        25.8308691462       19.6242797535       11.8800441817
  H        23.6601932623       19.6622847652       10.6490186117
  H        22.3465149230       16.2249820166       12.8758933758
  H        24.5208559645       16.2032499752       14.1046921200
  H        23.7226124482       17.6127603983        9.2449542390
  H        35.1337918331       15.4512885076       11.9903125262
  H        37.2541429184       15.4054612943       10.6709848441
  H        38.6831981450       18.8120514370       12.8740052826
  H        36.5538474613       18.8458624183       14.1878032662
  H        37.2235774292       17.3898246546        9.2344831752
  H        20.3613274282       17.9764457252       12.6671269817
  H        35.2228017722       15.4575413921        4.0548448560
  H        37.3568725625       15.4098826111        5.3561883174
  H        38.7366027188       18.8653490765        3.1978907022
  H        36.6002215788       18.8899659766        1.8915227438
  H        37.2490009701       17.4057375554        6.7900489248
  H        35.1019303120       26.7178838383        3.4063057907
  H        28.5078056272       21.0846555490       15.9748874210
  H        25.7770689997       19.5697625703        4.2357873435
  H        23.5823126288       19.6304810462        5.4227220334
  H        22.2947711001       16.1718167619        3.2131136407
  H        24.4875452638       16.1394722563        2.0100110328
  H        23.7010350462       17.5871375630        6.8067618880
  H        28.9625398008       21.7236938881        1.7982387042
  H        29.1591194930       21.7460391314       14.6219105436
  H        32.1277571115       18.5388829187        2.9853705919
  H        27.3942462230       19.0680641513        0.0946167165
  H        14.8536838911       19.6385246297        4.1556477557
  H        17.0155963037       19.6736363671        5.3992603142
  H        18.2993400153       16.1737575433        3.2545652679
  H        16.1335848348       16.1538185616        2.0106785991
  H        16.9215837103       17.6745015165        6.8581659925
  H        46.0945114752       15.4575099819        4.0861069276
  H        43.9738830377       15.4205527935        5.4035959019
  H        42.5750338091       18.8565378060        3.2254773320
  H        44.6956251807       18.8676799281        1.8981362386
  H        44.0321234299       17.3641869118        6.8633795247
  H        20.2919159975       17.9022442309        3.4305777588
  H        46.0344498729       15.3848057329       12.0331167635
  H        43.9001721028       15.3231383312       10.7428964023
  H        42.5093439113       18.7794350101       12.8925171797
  H        44.6510400681       18.8281759244       14.1819111799
  H        44.0067596822       17.3248167286        9.3032269039
  H        46.2003022534       26.6831901961       12.6183159404
  H        52.7415367865       21.0627911100        0.1998800659
  H        14.8821577813       19.6695432302       11.8863195879
  H        17.0838645145       19.7379468321       10.7082139736
  H        18.3377528444       16.2295377139       12.8558381442
  H        16.1380612592       16.1842129231       14.0430573822
  H        16.9433799033       17.6956303215        9.2952969501
  H        52.3236387774       21.6736459513       14.2887029644
  H        52.0139835809       21.7025928568        1.5008698069
  H        49.0680475620       18.6075571643       13.1986787115
  H        13.2482989463       19.0154808487       15.9725938921
  H        29.9078837699       12.5641367957        4.3290811950
  H        28.8582516486       10.6214706817        5.4945244746
  H        25.3077816429       11.1143979699        3.1158611988
  H        26.3876855553       13.0292390741        1.9267725775
  H        27.1266713386       11.7014772807        6.7950307963
  H        30.9644419572       22.7850563812        4.0415707588
  H        31.9707451591       24.6647869727        5.3437628853
  H        35.6435928036       24.2016170805        3.1530406917
  H        34.6169817381       22.3289649749        1.8460741088
  H        33.6534624316       23.6037193043        6.7619924350
  H        25.7442699782        8.5859910731        3.4030613117
  H        30.9314439259       22.7435588787       11.9649806456
  H        31.9583803947       24.5974361713       10.6501373709
  H        35.6232328124       24.1132928221       12.8497866165
  H        34.5790007932       22.2576477544       14.1639254546
  H        33.6454517681       23.5765297422        9.2063276099
  H        40.5774821615       17.0663099596       12.6597387136
  H        32.5201396879       14.1450518987        0.2631526354
  H        29.8718420354       12.5446860232       11.8795981475
  H        28.8372783268       10.6415577928       10.6404151573
  H        25.1884604081       11.1954462028       12.8487454408
  H        26.2418638757       13.0898378367       14.0941105746
  H        27.1131398455       11.7144840160        9.2306310489
  H        33.2888987639       14.1815506431       14.4199320154
  H        33.4125546698       14.4030745318        1.6102302616
  H        32.1342787411       18.5870586069       13.2087151295
  H        30.2240692789       14.1917758986        0.0703415969
  H        16.1175296089        2.9638445289        4.1338959562
  H        14.9526415304        4.8211277506        5.3266328989
  H        17.3683854295        7.6862005522        3.2166842302
  H        18.5168327819        5.8186450221        2.0169570339
  H        16.7538056736        5.7397890701        6.7766407665
  H        44.8275731749       32.1405470685        3.9828494477
  H        45.9369867308       30.3417980302        5.3122974325
  H        43.6842730584       27.3782286750        3.1564894948
  H        42.6013705402       29.1901509892        1.8138428105
  H        44.2305041821       29.4367707975        6.7740931954
  H        14.8525013126        8.5471660111        3.3684710936
  H        44.8991592036       32.2343180251       11.9259400248
  H        46.0242250343       30.4133688925       10.6465258970
  H        43.7655125094       27.4841843525       12.8418338977
  H        42.6475328388       29.3179673262       14.1208969384
  H        44.2685773545       29.4705030064        9.2131794229
  H        35.0840214117       26.6200277076       12.6345131740
  H        36.6052675617       35.1344983358        0.1855160471
  H        16.1432476899        3.0132998271       11.8995663732
  H        14.9737782127        4.8567694036       10.6838464867
  H        17.3975174814        7.7474242661       12.7491096407
  H        18.5444715713        5.8935470750       13.9766510808
  H        16.7648501733        5.7556527916        9.2141679416
  H        36.2787529932       34.4830588074       14.2678193310
  H        36.3812170378       34.2092333435        1.5042228479
  H        40.5813632485       33.2038061581       13.1481712245
  H        17.4710041966        1.9483858585       15.9691683268
  H        28.7622355965       19.0121915904        4.3680482018
  H        29.7322050050       19.8763375954       11.6518193203
  H        32.1572663100       16.2043897591       10.7173449586
  H        31.3216301259       15.4979227509        4.4865506549
  H        28.2400697409       17.3151556347        6.7896903159
  H        31.4520937410       20.1174516740        9.5165685203
  H        33.3127370605       16.8870521454        9.8815528872
  H        28.9232556160       16.7419594530        9.3324717969
  H        18.8540995788        0.8692434302        4.3405045808
  H        40.5281008258       35.2289966889       11.9467344049
  H        42.3259169119       34.4207982170       11.5843163197
  H        22.0876057289        0.6922315968        4.3569841953
  H        11.5969526345       18.7128775207        4.3877149153
  H        52.2652456141       18.4313279994       11.6721822489
  H        49.2548304538       16.4767333162       11.5792741752
  H        10.1504940377       15.7981310688        4.2976233500
  H        50.8504703306       17.6926993688       11.9489571437
  H        10.0464271178       17.3944690432        4.0569513840
  H        20.2154850942        0.0024659129        4.0469820405
  H        39.1840043977       36.1246189180       11.6811609973
  H        32.2852549549       18.0738265533        6.7894573562
 Ni        30.7337175608       17.9385967153       10.8243204052
 Ni        30.7750664042       16.1053326459        7.6651811795
 Ni        29.9303001717       18.7967229319        7.9084698714
 Ni        30.1363441741       17.2611646144        5.1676951670
  O        10.6499904389       14.3651860502       13.4807603019
  O        12.6131763903       14.6574742869       14.5788110108
  O        49.1480183321       16.8457804153       15.9844956827
  O        50.3503455180       20.9357049280       13.6428217442
  O        48.3485920002       20.5933216029       14.6607349996
  O        11.0519169033       17.0537516911       14.4957002578
  O        50.3210093382       20.8816221876        2.4119951000
  O        48.3467461788       20.5867364571        1.3322143325
  O        49.5439753459       18.2483965714        2.0732094360
  O        12.3593283261       18.6247336739        0.0047931669
  O        48.6932477681       14.1486712934       14.7461913512
  O         8.2099442702       14.2104503897        1.3276155410
  O        10.7353650141       14.5067943920        2.6693857285
  O        12.5717911104       14.5828060433        1.3336196900
  O        22.8448950602        2.0440876929       13.4819666259
  O        21.6057028177        3.5925249868       14.5844331753
  O        42.0585688698       34.1379034635       15.9739030691
  O        37.9818096898       33.1396145242       13.5678657678
  O        39.2184986248       31.5768779393       14.6621033136
  O        20.3087448142        1.0402634226       14.4972370537
  O        38.0251488617       33.1874407183        2.4198693370
  O        39.2186867902       31.5836101442        1.3323876062
  O        40.6524280521       33.7696812682        2.0653070363
  O        18.2554007984        1.3768242118        0.0019235549
  O        44.6222193444       35.1006071970       14.7536941398
  O        24.2054968435        0.0000101196        1.3258381942
  O        22.7533152370        2.0578001880        2.5889659681
  O        21.6250408034        3.5964871824        1.3487664099
  O        27.4970193699       18.7521912328       13.4950979149
  O        26.7682361791       16.9312737369       14.6520974624
  O        30.6651195191       19.4090643238        0.0804870352
  O        33.5457966675       16.3314456693       13.6456785534
  O        34.2778256962       18.1814911787       14.7377223499
  O        29.5729794427       17.0712922582       14.5744944043
  O        33.6284503100       16.3311454660        2.4105537698
  O        34.3030064800       18.2553141273        1.4105779194
  O        31.6522947994       18.3170934746        2.1682682044
  O        30.3238856051       15.1578955161        0.0791507980
  O        28.5541943484       21.0350705656       14.9010962417
  O        28.5099727135       20.9529098047        1.4166366950
  O        27.4938831391       18.6080968387        2.7388299820
  O        26.6940618818       16.9309415852        1.4195146563
  O        13.1496640497       18.6925399947        2.5927511610
  O        13.9192221928       16.9160769141        1.4099582885
  O        50.5966610417       19.3502733320        0.0254975190
  O        47.6834818391       16.3270193538        2.4224432480
  O        46.9524959429       18.1761931646        1.3290312598
  O        11.0701216037       17.0154025659        1.4946996154
  O        47.6745724199       16.3357402117       13.6477140563
  O        46.9260987279       18.2360501822       14.6590426213
  O        49.5688582393       18.3177255298       13.9771581288
  O        10.3187677008       15.1000748061        0.0022184378
  O        52.6708284723       21.0278467534        1.2469301935
  O        12.1468973321       20.8912129734       14.6681888314
  O        13.1083853172       18.6135223561       13.3205519630
  O        13.9568886596       16.9870239154       14.6605680715
  O        30.0007022862       14.4366168148        2.6689083485
  O        28.0784785470       14.6592875120        1.4877473577
  O        32.1413424215       16.8619807097        0.0832005016
  O        30.9530382499       20.9521836252        2.4256657519
  O        32.9203319819       20.6553797621        1.3323723638
  O        29.5705421709       17.0763605113        1.5834695979
  O        30.8753521012       20.9551523737       13.6636595623
  O        32.8809311438       20.5853788886       14.6614449878
  O        31.6815039830       18.2597376073       14.0009755183
  O        28.2833401904       18.6772057304        0.0935385882
  O        32.4973297471       14.2113904950        1.3330802421
  O        32.4014254265       14.2172088497       14.8130325134
  O        29.8739809893       14.5078918757       13.4070400774
  O        28.0425669128       14.5858991679       14.7449853113
  O        17.8892299124        1.9667432812        2.6678858021
  O        18.9563019418        3.5272174337        1.4131120440
  O        39.1686406382       34.1390241473        0.0023293830
  O        43.2802543744       33.0590192295        2.3368570752
  O        42.0345724863       31.5064579024        1.2468106528
  O        20.3180721913        1.0371928052        1.4849236535
  O        43.2760824672       33.1826359655       13.5697618022
  O        42.0052776415       31.5841419592       14.5778941463
  O        40.5791603510       33.7753774825       13.9310658943
  O        22.3676634040        1.3850033941        0.0030843913
  O        36.6727493650       35.1000023358        1.2382356860
  O        16.4457100008        0.0646242565       14.6632789509
  O        17.9365750632        2.0434680234       13.3213274559
  O        18.9191055602        3.5931779445       14.6608420916
  O        29.8631695327       19.0428984401       12.1403636317
  O        29.7003365741       19.0427412147        4.0834348538
  O        31.1704106059       16.3299683470       12.0686923737
  O        31.4327367033       16.3341202280        3.9839305944
  O        32.3758345471       16.6342211478        9.8275789003
  O        29.8228927936       17.0726668518        9.1730815346
  O        30.1177589987       15.5350871801        6.1523006013
  O        31.3502357798       17.8158762161        6.8276243033
  O        30.6658499727       19.5539571156        9.5711236889
  O        28.7270300893       18.1004033021        6.4887891794
  O        39.4568969989       35.2439357521       11.9968396624
  O        19.1418559797        0.0047665023        3.9956138793
  O        41.9696471331       35.1730037813       12.0820720458
  O        21.6913488392       -0.0692374393        3.9011949520
  O        51.3653166316       18.6143079857       12.0002735337
  O        10.7511930892       18.7471036096        3.9100137577
  O        50.0791256724       16.4127497100       12.0867101452
  O         9.5245244138       16.4830082771        3.9962630616
 Zr         9.2982968953       16.0527172072       14.1773868757
 Zr        49.8377792353       16.0065154697        1.7512987673
 Zr        22.0738287643        0.0314762093       14.1835839381
 Zr        42.4615119388       35.1548922952        1.8064646058
 Zr        29.5966389914       19.1031094368       14.3012198621
 Zr        29.5765140221       19.1765582096        1.8956109768
 Zr        11.0395989754       19.0516089455        1.8330321797
 Zr        11.0453811973       19.1546403459       14.2455689056
 Zr        31.3548528669       16.0906601747        1.8835826836
 Zr        31.3955938939       16.0318285492       14.2947200427
 Zr        18.6018060683        0.0003907988        1.7682370500
 Zr        18.5072126923       -0.0058588504       14.2089515393
 Zr        12.3039054504       16.3235149958       15.9852797539
 Zr        48.6183823160       18.8333028644        0.0149112589
 Zr        20.3164305077        2.4754862344       15.9856883338
 Zr        40.6447393667       32.6888546852       15.9734435485
 Zr        28.3430054766       16.3445882526        0.0927149736
 Zr        32.6235817582       18.8495205107        0.0732597705
  O        30.1592371232       20.4404087901        6.4222090778
  H        31.0274141372       20.8724490732        6.3943921702
  H        30.0627138021       19.9891527059        5.5267035854
  H        30.4632042617       15.6694735279       11.9196816068
