     581
 i =      230, E =     -4829.4117315360
  C        11.8587664308       14.0535850292       13.7364600815
  C        12.4563004300       12.8906113277       13.0181544263
  C        11.7046840715       12.1718084133       12.0763523954
  C        12.2810825739       11.1096321425       11.3839682608
  C        13.6215998155       10.7397521904       11.6118646172
  C        14.3546972291       11.4432244333       12.5854464877
  C        13.7817957741       12.5081959406       13.2769546004
  C        14.2611639443        9.6491008727       10.8384833323
  C        14.2566640687        9.6571022129        9.4167841263
  C        13.7437088378       10.7593322340        8.6628842511
  C        49.1268372761       21.2332646161       13.8745290151
  C        48.5500883379       22.4011823484       13.1474592084
  C        49.3001857319       23.0686355341       12.1665970825
  C        48.7332420117       24.1077697052       11.4334047684
  C        47.4026430680       24.5092933496       11.6619209867
  C        46.6716160551       23.8602938538       12.6752995983
  C        47.2340854830       22.8154021392       13.4046549265
  C        46.7724094042       25.5869910930       10.8646424531
  C        46.7615021812       25.5574399779        9.4428794055
  C        47.2615609289       24.4424088208        8.6993763835
  C        14.8605368177        8.5707096250        8.7035437443
  C        14.8916907441        8.5970241428       11.5151554856
  C        49.1132349265       21.2035250506        2.1504866249
  C        48.5278888052       22.3648861702        2.8776015947
  C        49.2671397029       23.0256634576        3.8704611032
  C        48.6907923801       24.0602199149        4.6018970654
  C        47.3603387761       24.4569006986        4.3637122590
  C        46.6398955345       23.8119361542        3.3402456455
  C        47.2134741310       22.7760381049        2.6084791246
  C        46.7218678550       25.5318436317        5.1547411220
  C        46.7337151323       25.5282590752        6.5764419763
  C        47.2492824663       24.4291064597        7.3328251693
  C        40.6349811044       17.1309601581        7.3323630323
  C        40.6527388723       17.1726868713        4.5234140924
  C        11.8829961812       14.0866316891        2.2906085084
  C        12.4724078131       12.9108465399        2.9949126170
  C        11.7149614173       12.1776493790        3.9210653595
  C        12.2815911936       11.0952033206        4.5894754950
  C        13.6203937634       10.7214891010        4.3575626856
  C        14.3583097321       11.4370603255        3.3967292494
  C        13.7928390559       12.5182355487        2.7240724406
  C        14.2540332016        9.6247294695        5.1279428968
  C        14.2529055283        9.6447654556        6.5497810456
  C        13.7431965135       10.7538046402        7.2968374427
  C        22.5119490714        3.2443593232       13.7476787170
  C        23.2275905827        4.3496392865       13.0472594404
  C        24.2228793931        4.0681439508       12.0997375039
  C        24.8513421006        5.1066498205       11.4172127096
  C        24.5007103344        6.4491603194       11.6624017060
  C        23.5334576260        6.7223318023       12.6466744145
  C        22.9000617985        5.6854037509       13.3272678449
  C        25.1095993620        7.5540556123       10.8860528084
  C        25.0785742961        7.5474953674        9.4644539833
  C        24.3680849435        6.5531876081        8.7195096364
  C        38.3027901006       31.9292645169       13.8437745352
  C        37.5747019598       30.8392478027       13.1345134110
  C        36.6193754416       31.1411803906       12.1519913917
  C        36.0050822566       30.1193169227       11.4334632514
  C        36.3308581375       28.7705237540       11.6764073695
  C        37.2556460645       28.4762415000       12.6960056734
  C        37.8745967076       29.4966913797       13.4128626230
  C        35.7322371766       27.6770523374       10.8789654215
  C        35.7685458090       27.6898931158        9.4577614776
  C        36.4757242728       28.6915437026        8.7206638182
  C        25.7084101910        8.6126015177        8.7432426915
  C        25.7133544552        8.6261805759       11.5554587784
  C        38.3288880706       31.9617532336        2.1613403798
  C        37.6089931869       30.8876231218        2.9024429775
  C        36.6838780606       31.1936825595        3.9122390623
  C        36.0772294737       30.1731195648        4.6417049709
  C        36.3812849364       28.8211714018        4.3847443301
  C        37.2831391662       28.5252560587        3.3442751669
  C        37.8921520708       29.5421504369        2.6162732626
  C        35.7778144333       27.7199117548        5.1690184030
  C        35.7919425586       27.7118676198        6.5909278372
  C        36.4864263958       28.7024085657        7.3540975898
  C        46.1356511913       26.6208552687        7.2865851024
  C        46.0877464002       26.5801096479        4.4786953978
  C        22.4597436390        3.2553042655        2.2625050871
  C        23.1525093093        4.3644779433        2.9862780253
  C        24.1542629612        4.0784027697        3.9272214158
  C        24.7815350594        5.1087395619        4.6233647270
  C        24.4272131654        6.4542449892        4.4001342177
  C        23.4481846131        6.7337881129        3.4281570451
  C        22.8159428279        5.7034898605        2.7329707371
  C        25.0604491344        7.5516088822        5.1730759308
  C        25.0539427681        7.5460515062        6.5957005087
  C        24.3544877703        6.5538032287        7.3529150670
  C        26.6234259310       17.8605168243       13.7771322099
  C        25.3136021225       17.9087317277       13.0520933970
  C        25.0505037658       18.9141381384       12.1083596297
  C        23.8375963601       18.9374907393       11.4215579625
  C        22.8505231935       17.9586649173       11.6580628316
  C        23.1096304112       16.9762567937       12.6319081562
  C        24.3247937392       16.9480676073       13.3156727525
  C        21.5766191032       17.9467048638       10.8943623423
  C        21.5759441605       17.9249521873        9.4720857697
  C        22.7817123843       17.8031632826        8.7113792674
  C        34.4402284464       17.1934676719       13.9174333245
  C        35.7340777511       17.1421991192       13.1732988053
  C        35.9367695768       16.1749035480       12.1771232835
  C        37.1166720200       16.1609374115       11.4392939969
  C        38.1261628210       17.1122532371       11.6808236307
  C        37.9267753390       18.0602561025       12.7020481579
  C        36.7428912696       18.0804294290       13.4355433315
  C        39.3798541776       17.1200045430       10.8951655310
  C        39.3754495931       17.1367345952        9.4739234598
  C        38.1672762836       17.2549641861        8.7170635487
  C        20.3293453515       17.9401993334        8.7635756520
  C        20.3520249203       17.9487132334       11.5768770060
  C        34.4757188435       17.2496290768        2.1843976487
  C        35.7757316561       17.1821840397        2.9182219768
  C        35.9985363123       16.1829010843        3.8783498547
  C        37.1833197882       16.1640085538        4.6096060784
  C        38.1741153916       17.1433650626        4.3972230201
  C        37.9564818012       18.1181199632        3.4074072046
  C        36.7689204962       18.1419045295        2.6799969522
  C        39.4227878010       17.1566472529        5.1892854011
  C        39.3984137074       17.1575478547        6.6094098683
  C        38.1800374349       17.2647634900        7.3509075108
  C        35.1638222863       26.6314981942        7.2949646930
  C        35.1864968513       26.6497801924        4.4859616308
  C        26.5691887551       17.8234738373        2.3294149903
  C        25.2530524187       17.8698801707        3.0364080249
  C        24.9853080785       18.8824586157        3.9697026677
  C        23.7678873719       18.9092757237        4.6444555343
  C        22.7890782559       17.9233835469        4.4084507290
  C        23.0507443522       16.9354726917        3.4422147791
  C        24.2692236604       16.9069160039        2.7660772579
  C        21.5257820868       17.9071719209        5.1819696051
  C        21.5500059564       17.9029383898        6.6033215411
  C        22.7692827527       17.7923469871        7.3451244525
  C        14.0461233517       17.8286712410        2.2942372177
  C        15.3497881248       17.8853176444        3.0204622640
  C        15.6059392715       18.8889337181        3.9677526904
  C        16.8144172921       18.9097593704        4.6613621872
  C        17.8007996574       17.9298024053        4.4297605980
  C        17.5493590556       16.9502937564        3.4504831284
  C        16.3403235914       16.9248730560        2.7584224722
  C        19.0697970236       17.9138946495        5.1985929809
  C        19.0687335940       17.9140310368        6.6209892534
  C        17.8620023500       17.8155847625        7.3827351540
  C        46.8060468359       17.2202903685        2.1651586222
  C        45.5181443882       17.1633437766        2.9140831402
  C        45.3126653350       16.1896179606        3.9035875931
  C        44.1327975877       16.1771289374        4.6425616502
  C        43.1290220196       17.1384608083        4.4136059461
  C        43.3321084006       18.0921906460        3.3980207105
  C        44.5126359533       18.1086197539        2.6601090143
  C        41.8766660898       17.1527430744        5.2025311606
  C        41.8819625368       17.1473744967        6.6243111471
  C        43.0904059474       17.2401982259        7.3840689152
  C        20.3157331213       17.9281149235        7.3287897863
  C        20.2936491348       17.8932403970        4.5159080311
  C        46.7860564216       17.2299272730       13.8863903473
  C        45.4820367290       17.1217241607       13.1746932002
  C        45.2656140931       16.1256687633       12.2107007460
  C        44.0775209137       16.0993892996       11.4851047285
  C        43.0776145921       17.0656261076       11.7079493057
  C        43.2834364755       18.0297147595       12.7121626376
  C        44.4729435315       18.0629278258       13.4322118926
  C        41.8330659608       17.0909556792       10.9101345703
  C        41.8596303852       17.1139030016        9.4897549972
  C        43.0796194287       17.2220311385        8.7504068283
  C        46.1534209413       26.6372781662        8.7211271592
  C        46.1622687783       26.6560061556       11.5307698727
  C        14.0456471579       17.8324682074       13.7041683223
  C        15.3668962434       17.9090056089       13.0146192569
  C        15.6385864517       18.9249944087       12.0861381015
  C        16.8675696319       18.9645214134       11.4315236051
  C        17.8524346643       17.9872578549       11.6796532453
  C        17.5877933440       17.0006070403       12.6468356503
  C        16.3607357355       16.9604785152       13.3048928483
  C        19.1193573239       17.9641842123       10.9102041935
  C        19.0944590213       17.9388035949        9.4887952978
  C        17.8745154244       17.8266319482        8.7486650958
  C        28.8114507381       14.0940666340        2.3967591339
  C        28.1977996788       12.9173969919        3.0837006988
  C        28.9295617165       12.1635659700        4.0123793444
  C        28.3339118531       11.0842789413        4.6607442097
  C        26.9919313874       10.7377343016        4.4053484168
  C        26.2804336858       11.4732947875        3.4409094549
  C        26.8751427286       12.5512006185        2.7895773417
  C        26.3245995230        9.6571065743        5.1671082085
  C        26.3194591762        9.6800699448        6.5878042770
  C        26.8457308770       10.7834943735        7.3326571465
  C        32.1796044378       21.2381321412        2.1455178568
  C        32.7796688609       22.4019858216        2.8670971282
  C        32.0363794086       23.0756722936        3.8482144361
  C        32.6106951149       24.1125629401        4.5776242091
  C        33.9436408061       24.5036890515        4.3459078753
  C        34.6693685943       23.8481571800        3.3336190910
  C        34.0973609515       22.8056909203        2.6064552428
  C        34.5755319655       25.5778576957        5.1455748980
  C        34.5725508125       25.5475180988        6.5671368094
  C        34.0669739502       24.4310858339        7.3053936117
  C        25.7005528684        8.6087201414        7.3086302952
  C        25.6792650409        8.6107235339        4.4955112564
  C        32.1028066064       21.2237551425       13.8740192334
  C        32.6958925492       22.3733466666       13.1271066060
  C        31.9676225010       23.0274547758       12.1217325274
  C        32.5513017028       24.0566243787       11.3863122748
  C        33.8768690368       24.4611530058       11.6381950007
  C        34.5881521449       23.8196259000       12.6702016564
  C        34.0091955338       22.7852882967       13.4008281992
  C        34.5202664281       25.5414785262       10.8554705316
  C        34.5432498825       25.5293095027        9.4337437580
  C        34.0519970031       24.4227101165        8.6718874143
  C        40.6227392705       17.1171626931        8.7660873876
  C        40.6025475701       17.1130959634       11.5750137014
  C        28.7471613701       14.0714862117       13.8129625756
  C        28.1365428725       12.9262223236       13.0667720227
  C        28.8813767723       12.2226358979       12.1074506123
  C        28.3063513497       11.1620611613       11.4097312910
  C        26.9696130446       10.7798691171       11.6461991575
  C        26.2416487154       11.4738994713       12.6299095549
  C        26.8161690779       12.5337074308       13.3301468495
  C        26.3309465244        9.6849274371       10.8767546155
  C        26.3233395168        9.6937519024        9.4554951283
  C        26.8437305345       10.7897362460        8.6979955853
  C        18.1353568316        3.1808447527        2.3222388683
  C        17.4060302414        4.2781445444        3.0208404965
  C        16.3905586810        3.9997792076        3.9486170768
  C        15.7428025822        5.0397641271        4.6120937212
  C        16.0944621394        6.3835087991        4.3721757680
  C        17.0834953535        6.6530303283        3.4080416884
  C        17.7325956613        5.6156834290        2.7430066513
  C        15.4702367347        7.4912510079        5.1352285495
  C        15.4856190622        7.4906087081        6.5569437500
  C        16.1870187712        6.4969019559        7.3101442031
  C        42.9458743330       31.8594129744        2.0779819820
  C        43.6461692343       30.7718023450        2.8219860564
  C        44.5920000561       31.0930801861        3.8077906470
  C        45.1976201080       30.0875059047        4.5554711752
  C        44.8708891962       28.7344811786        4.3408111030
  C        43.9446892139       28.4201919565        3.3279359531
  C        43.3359286400       29.4253543932        2.5798822698
  C        45.4885134409       27.6551975778        5.1439902772
  C        45.4928076070       27.6809017196        6.5656748453
  C        44.8056470629       28.6889054967        7.3122867256
  C        14.8568200147        8.5631949355        7.2693174402
  C        14.8750124539        8.5630683368        4.4566458151
  C        42.9464206761       31.9614236913       13.8038630817
  C        43.6915133616       30.8853623413       13.0902580058
  C        44.6564480195       31.1912385005       12.1182729316
  C        45.2779447763       30.1716354417       11.4005649284
  C        44.9538173341       28.8213460439       11.6379076867
  C        44.0198958617       28.5237009905       12.6482745046
  C        43.3916319951       29.5404809701       13.3604247338
  C        45.5629669249       27.7239820197       10.8526999051
  C        45.5333475851       27.7173711356        9.4314095634
  C        44.8269289447       28.7075429797        8.6784706170
  C        35.1504548512       26.6212170434        8.7296622094
  C        35.1259612430       26.6024144105       11.5392849529
  C        18.1484669613        3.2468853104       13.7015433902
  C        17.4297103789        4.3437581907       12.9924077906
  C        16.4147647839        4.0524496057       12.0685642262
  C        15.7664592480        5.0830668319       11.3931355731
  C        16.1208488754        6.4283343853       11.6160955659
  C        17.1118224581        6.7117470015       12.5737740817
  C        17.7594830428        5.6828517497       13.2535735549
  C        15.4904983079        7.5240608364       10.8435898719
  C        15.4965797391        7.5075104914        9.4224521875
  C        16.1931887310        6.5057009341        8.6757510383
  H        10.6725839178       12.4660153883       11.8992797771
  H        11.6948466643       10.5512088360       10.6573405583
  H        15.3916920590       11.1685636420       12.7672809011
  H        14.3511973305       13.0714186135       14.0124412275
  H        13.3767642200       11.6314732278        9.1962185757
  H        50.3229375246       22.7486939079       11.9819330073
  H        49.3197663530       24.6231311434       10.6759235448
  H        45.6420601065       24.1609272734       12.8583508484
  H        46.6629842161       22.2900663816       14.1666147827
  H        47.6301570450       23.5760515543        9.2410530363
  H        14.8718188047        8.5881961524       12.6034579437
  H        50.2872192963       22.7028915900        4.0653244996
  H        49.2691923657       24.5757427807        5.3653483176
  H        45.6104634729       24.1091134776        3.1512246835
  H        46.6526265050       22.2538571727        1.8369499222
  H        47.6081087047       23.5520033079        6.8019349479
  H        40.6579769141       17.1455172501        3.4354507582
  H        48.6871176169       14.0949376995       15.7948936290
  H        10.6814862832       12.4667108775        4.0984727930
  H        11.6898374321       10.5247724312        5.3021755545
  H        15.3937382867       11.1592013008        3.2107422646
  H        14.3651319039       13.0876634552        1.9955482516
  H        13.3764681466       11.6224464062        6.7581723758
  H        47.9300998645       14.2187122736        1.7158929725
  H        47.7802071772       14.3741888621       14.4902040248
  H        49.0841225988       18.5527566035        2.8726047980
  H        10.4161193365       14.1343095357        0.0038789429
  H        24.4815714629        3.0290768918       11.9083404497
  H        25.6229304618        4.8875721273       10.6822890652
  H        23.2549157615        7.7557075485       12.8426032547
  H        22.1310214836        5.8871338822       14.0689463555
  H        23.8031272128        5.7999839065        9.2609344265
  H        36.3834432541       32.1839875453       11.9534512708
  H        35.2641532701       30.3565448520       10.6732011727
  H        37.5140459337       27.4374491731       12.8908580738
  H        38.6147106772       29.2773980441       14.1787366070
  H        37.0406009990       29.4414064820        9.2668031826
  H        25.7478208725        8.6106854226       12.6433196121
  H        36.4613411783       32.2372866967        4.1229381503
  H        35.3545887822       30.4156630393        5.4176933583
  H        37.5290683819       27.4855491360        3.1387374667
  H        38.6113279386       29.3185787042        1.8321324678
  H        37.0605029271       29.4602460050        6.8287864330
  H        46.1089766379       26.5874344527        3.3906554676
  H        44.6680350520       35.1160161229       15.8088443713
  H        24.4319158289        3.0401494408        4.0943775200
  H        25.5620931735        4.8804097098        5.3459753495
  H        23.1633885555        7.7682668833        3.2471988894
  H        22.0441673924        5.9156398372        1.9966667649
  H        23.7783524143        5.8015567171        6.8219004772
  H        44.9531431832       34.3898471499        1.6999442775
  H        44.9010893626       34.2065320278       14.4855213501
  H        40.6653203396       33.2084653660        2.8579347255
  H        23.1505643090        1.9573143982        0.0103172793
  H        25.8098197429       19.6742639105       11.9362482698
  H        23.6359760836       19.7249186909       10.6981444110
  H        22.3588183891       16.2124291449       12.8242130085
  H        24.5359597645       16.1771814215       14.0532898387
  H        23.7214756502       17.6864738690        9.2433664885
  H        35.1523515896       15.4450339366       11.9920811749
  H        37.2728846577       15.4048256510       10.6731240703
  H        38.6990929704       18.8030910981       12.8908166920
  H        36.5695509802       18.8266006359       14.2076291833
  H        37.2238798465       17.3647880095        9.2443409621
  H        20.3592575353       17.9889485144       12.6647307529
  H        35.2259321198       15.4320320821        4.0321299348
  H        37.3638334991       15.3830869422        5.3457272628
  H        38.7161585766       18.8790451046        3.2404927360
  H        36.5779107409       18.9094607420        1.9335030971
  H        37.2481735316       17.3893486864        6.8074606403
  H        35.1542325476       26.6778427097        3.3984458142
  H        28.5060636299       21.0679893507       15.9544960298
  H        25.7442023039       19.6415903771        4.1455994976
  H        23.5583007585       19.6996570756        5.3620985539
  H        22.3025234660       16.1681601039        3.2540303402
  H        24.4884027081       16.1337609863        2.0334131830
  H        23.6996563498       17.6680221093        6.7988884658
  H        29.0094135283       21.7140457372        1.7622584625
  H        29.1849026589       21.7228130872       14.6231310709
  H        32.1109907039       18.5640740645        2.9742248536
  H        27.3739103029       19.0210667346        0.0767641760
  H        14.8475939830       19.6482959722        4.1449502423
  H        17.0096201003       19.6943740387        5.3892354375
  H        18.3007246320       16.1860329439        3.2625806219
  H        16.1345665570       16.1555498209        2.0179691283
  H        16.9194952709       17.6981653994        6.8558736593
  H        46.0944927930       15.4561595891        4.0863079300
  H        43.9733269720       15.4141214230        5.4012602933
  H        42.5652147148       18.8425782878        3.2174652651
  H        44.6862837630       18.8591409384        1.8925568416
  H        44.0322544300       17.3581131888        6.8558941298
  H        20.2874741668       17.9200496943        3.4277076207
  H        46.0444489468       15.3881083066       12.0310204321
  H        43.9115257511       15.3279277008       10.7363435780
  H        42.5149894321       18.7790531565       12.8902195323
  H        44.6551914365       18.8268277882       14.1840270140
  H        44.0133900052       17.3249235033        9.2956081508
  H        46.1989425460       26.6824795024       12.6182221888
  H        52.7412471712       21.0627061223        0.1998028399
  H        14.8767122024       19.6772936282       11.8941847914
  H        17.0774050396       19.7551650578       10.7143319059
  H        18.3399019285       16.2400751586       12.8463848121
  H        16.1409250745       16.1857818588       14.0354555226
  H        16.9414260013       17.7176747421        9.2932080514
  H        52.3226637728       21.6734414375       14.2891934355
  H        52.0134972444       21.7022918457        1.5008126984
  H        49.0674216925       18.6078743689       13.1992105229
  H        13.2477039240       19.0164112253       15.9724263246
  H        29.9627282957       12.4395047658        4.2112620147
  H        28.9034823591       10.4967815214        5.3776979358
  H        25.2431308274       11.2152785398        3.2374251976
  H        26.3260103173       13.1403908821        2.0591035619
  H        27.2333059316       11.6391822566        6.7870299395
  H        31.0122715457       22.7597387929        4.0328400537
  H        32.0290466377       24.6349182615        5.3341162190
  H        35.7009456120       24.1411794686        3.1491877265
  H        34.6621262594       22.2738472325        1.8441091024
  H        33.7122342381       23.5628292255        6.7576046601
  H        25.7047356440        8.5927299760        3.4073902844
  H        30.9469018300       22.7099473206       11.9217968721
  H        31.9792312201       24.5650520889       10.6132364935
  H        35.6144909312       24.1206303452       12.8700100427
  H        34.5627780000       22.2674207940       14.1806517577
  H        33.6857221169       23.5476728186        9.2011765253
  H        40.5949088466       17.0716563211       12.6625108450
  H        32.5050882502       14.1518915291        0.2544013648
  H        29.9160122208       12.5156596151       11.9395847642
  H        28.8934537105       10.6053463563       10.6820461686
  H        25.2078216689       11.1916427321       12.8186703776
  H        26.2529685089       13.0832110711       14.0809671123
  H        27.2258720282       11.6504466982        9.2393793752
  H        33.3120452066       14.2389268360       14.4676744375
  H        33.4092900592       14.4191532984        1.5966081167
  H        32.0939205278       18.4954176173       13.1552291185
  H        30.2199329836       14.1918906564        0.0754337725
  H        16.1186486797        2.9632620192        4.1351922892
  H        14.9534788974        4.8203238010        5.3278775917
  H        17.3655595801        7.6859408328        3.2145722384
  H        18.5142568381        5.8183155421        2.0147528388
  H        16.7533424516        5.7393828554        6.7766550251
  H        44.8285131560       32.1401350194        3.9818011386
  H        45.9376799388       30.3411546843        5.3112579430
  H        43.6816110774       27.3781760871        3.1580897741
  H        42.5989569685       29.1900295095        1.8155546004
  H        44.2301279389       29.4365450236        6.7739786957
  H        14.8510847382        8.5462345450        3.3684294998
  H        44.9002539844       32.2338979522       11.9270579044
  H        46.0250823645       30.4127768144       10.6475326123
  H        43.7625208534       27.4840120378       12.8395035712
  H        42.6447387610       29.3176642012       14.1184776700
  H        44.2682654310       29.4703047525        9.2130723453
  H        35.0781414371       26.6173740048       12.6265024889
  H        36.6048300270       35.1339079756        0.1858141122
  H        16.1438531090        3.0128510993       11.8986647712
  H        14.9743035627        4.8561500381       10.6828810671
  H        17.3949350275        7.7472613447       12.7510235485
  H        18.5419869177        5.8933028884       13.9787358524
  H        16.7643594814        5.7552687701        9.2141978797
  H        36.2779857061       34.4827126402       14.2681197560
  H        36.3798297483       34.2096241079        1.5052505741
  H        40.5796351445       33.2019335371       13.1487051428
  H        17.4706168478        1.9472087296       15.9689603950
  H        28.9037007161       19.1728424223        4.4406504127
  H        29.9399190152       19.6929546933       11.5925192976
  H        31.9451385118       15.8038791720       11.5492930485
  H        31.2738916279       15.5859921187        4.5099860650
  H        28.2654305056       17.5174594771        6.6643091560
  H        29.6400896454       15.2018105883        6.5482382880
  H        31.7721493909       19.8196156251        9.3733924835
  H        33.1465005749       16.8458932782        9.3958757343
  H        28.9585826064       16.6281804169        9.1176177976
  H        18.8526760968        0.8688473598        4.3402799915
  H        40.5279219904       35.2293489649       11.9470422569
  H        42.3230497424       34.4177386073       11.5862092861
  H        22.0877949431        0.6918592890        4.3566479959
  H        11.5966991535       18.7129971608        4.3877380184
  H        52.2647762289       18.4310708922       11.6720555806
  H        49.2545003704       16.4777123833       11.5799516216
  H        10.1496436832       15.7982892409        4.2980588737
  H        50.8499450916       17.6924760687       11.9491651200
  H        10.0457704306       17.3945601673        4.0570612011
  H        20.2137248109        0.0020788190        4.0472548782
  H        39.1835529795       36.1246069909       11.6813504724
  H        32.2728440377       18.5589764414        6.8551698965
 Ni        30.9022115579       17.7388486045       10.6633059837
 Ni        31.2433504998       16.4228229019        7.9142757348
 Ni        29.8456829243       18.9348936326        7.9952120125
 Ni        30.3052243027       17.5070641968        5.2464491401
  O        10.6499725497       14.3650782184       13.4806950443
  O        12.6131871194       14.6575263788       14.5787918074
  O        49.1480716084       16.8459381544       15.9846463456
  O        50.3502947891       20.9358921436       13.6429862167
  O        48.3485689969       20.5933655179       14.6607972030
  O        11.0517500638       17.0539327204       14.4955936161
  O        50.3210367593       20.8816814511        2.4119504797
  O        48.3467780163       20.5867977599        1.3322681482
  O        49.5437467817       18.2484497599        2.0733937695
  O        12.3592148705       18.6246823901        0.0048182995
  O        48.6932768721       14.1485063167       14.7462066128
  O         8.2098607001       14.2103853680        1.3276997934
  O        10.7353762231       14.5067406892        2.6694428671
  O        12.5718299024       14.5828302761        1.3335963290
  O        22.8447533605        2.0434213945       13.4818058030
  O        21.6059039171        3.5927118272       14.5841263392
  O        42.0580682600       34.1371605589       15.9738419643
  O        37.9819284178       33.1378265662       13.5674440936
  O        39.2183691905       31.5764373024       14.6618093775
  O        20.3083031882        1.0394006062       14.4968251815
  O        38.0247849714       33.1857397251        2.4202559430
  O        39.2194848330       31.5841324711        1.3311785893
  O        40.6522374936       33.7692681936        2.0653748789
  O        18.2555539383        1.3763832773        0.0018496869
  O        44.6222141808       35.1005233350       14.7536117152
  O        24.2053370949        0.0000327001        1.3259555275
  O        22.7529111151        2.0578094545        2.5889109008
  O        21.6242403823        3.5959864212        1.3472670925
  O        27.4951704124       18.7516100867       13.4894195820
  O        26.7623524099       16.9299685021       14.6441375695
  O        30.6406483304       19.3537941500        0.0522472529
  O        33.5898769664       16.2733380359       13.6620220163
  O        34.2763226334       18.1677698768       14.7294754703
  O        29.5755415027       17.0574697335       14.5634822721
  O        33.6248579471       16.3282227981        2.4142157308
  O        34.3062436726       18.2489966884        1.4103939437
  O        31.6529325272       18.3159459156        2.1553112477
  O        30.3216214090       15.1572793008        0.0874964910
  O        28.5558216959       21.0273809763       14.8880641493
  O        28.5113143534       20.9550085186        1.4144351336
  O        27.4529758219       18.6771913001        2.6647825207
  O        26.6917221100       16.9255374173        1.4201109733
  O        13.1483620812       18.6930005444        2.5924994851
  O        13.9192559382       16.9162471489        1.4101877749
  O        50.5963648933       19.3502957136        0.0255918043
  O        47.6831803358       16.3271522779        2.4224520505
  O        46.9520162338       18.1760358946        1.3294901001
  O        11.0697689559       17.0155549988        1.4947569253
  O        47.6769240701       16.3353287446       13.6484311361
  O        46.9280615684       18.2356798901       14.6600314940
  O        49.5688404792       18.3177500913       13.9772113271
  O        10.3187058074       15.1001474910        0.0022053123
  O        52.6707586038       21.0278782797        1.2469262161
  O        12.1468533784       20.8912432012       14.6681464521
  O        13.1079140886       18.6137391869       13.3205726848
  O        13.9573265854       16.9871213417       14.6602267271
  O        29.9935324045       14.4420853413        2.7377498176
  O        28.0888108525       14.6528407838        1.5008288562
  O        32.1410455136       16.8522261685        0.0800748663
  O        30.9665174853       20.9533723293        2.4110206867
  O        32.9469437836       20.5998888815        1.3397283840
  O        29.5672103963       17.0710716758        1.5818369667
  O        30.8712372249       20.9440145408       13.6541517895
  O        32.8757981512       20.5870186499       14.6610862547
  O        31.6870735954       18.2513695152       14.0014597889
  O        28.2621409600       18.6300657194        0.0783729178
  O        32.4933637891       14.2126052883        1.3335125744
  O        32.4054427263       14.2155554587       14.8171532657
  O        29.9189188906       14.4362088968       13.4838162419
  O        28.0377570073       14.5871386776       14.7457204056
  O        17.8892138969        1.9666058191        2.6679314463
  O        18.9562566029        3.5271202594        1.4130886384
  O        39.1686465188       34.1388436977        0.0022697799
  O        43.2802430186       33.0589599635        2.3367639944
  O        42.0345939594       31.5064576164        1.2466952725
  O        20.3175161271        1.0365889091        1.4853701528
  O        43.2760922427       33.1825416957       13.5698010417
  O        42.0052982018       31.5840866305       14.5778833937
  O        40.5790204533       33.7749016887       13.9306283078
  O        22.3671729017        1.3845196118        0.0029671630
  O        36.6727310889       35.0998046766        1.2383981624
  O        16.4454957487        0.0642600482       14.6631849310
  O        17.9364468313        2.0434031785       13.3212377926
  O        18.9190908459        3.5931177669       14.6608132545
  O        29.9071629857       18.8424642547       12.0701041908
  O        29.7509142660       18.9729542148        3.9979316067
  O        31.3390977279       16.3525708837       12.0798926805
  O        31.3919158653       16.4109678141        3.9955781303
  O        32.2284766693       16.5695053505        9.5557262215
  O        29.7381843715       17.2109029426        9.0710735506
  O        30.4168772758       15.7479435531        6.3344046276
  O        31.3867820145       18.1636401692        6.8981958903
  O        30.8817990491       19.4944848538        9.5784444550
  O        28.7598371633       18.3163101887        6.4139797860
  O        39.4568977976       35.2440413729       11.9968375517
  O        19.1407448022        0.0043861931        3.9956976596
  O        41.9696926484       35.1725916792       12.0821120610
  O        21.6912173715       -0.0693711372        3.9009037021
  O        51.3649970890       18.6142654952       12.0002541546
  O        10.7509863811       18.7471575849        3.9100370366
  O        50.0792311930       16.4127552150       12.0866245776
  O         9.5239107106       16.4831719526        3.9963352449
 Zr         9.2972161288       16.0528173972       14.1774197084
 Zr        49.8364109831       16.0068109052        1.7513821813
 Zr        22.0728529596        0.0289971861       14.1841891294
 Zr        42.4604937208       35.1526399864        1.8058528197
 Zr        29.6025103776       19.0755241713       14.2381572777
 Zr        29.5693630974       19.1710441797        1.8640075008
 Zr        11.0381831979       19.0520746291        1.8328629048
 Zr        11.0441217321       19.1549476434       14.2458457004
 Zr        31.3552021956       16.1066892745        1.8723615468
 Zr        31.3882633226       16.0172735988       14.2511695811
 Zr        18.6005662088       -0.0021894688        1.7684500961
 Zr        18.5059395104       -0.0084708201       14.2084703731
 Zr        12.3022717066       16.3237799149       15.9851804109
 Zr        48.6169513794       18.8334085036        0.0153770010
 Zr        20.3144156504        2.4724017166       15.9852753458
 Zr        40.6427539625       32.6861843805       15.9731220322
 Zr        28.3501686130       16.3414060647        0.0874189750
 Zr        32.6158787771       18.8319828622        0.0530536012
  O        34.3967655354       16.0503672638        7.7331273824
  H        34.2686253809       15.0992756640        7.8782446256
  H        34.7688154835       16.1144626130        6.8365558210
  O        28.6346928134       14.2915465726        8.3313967143
  H        29.0465614920       13.9150313171        9.1285451759
  H        27.7739713954       13.8436743586        8.2753200979
  O        28.0089817327       20.0761090073        8.2534042664
  H        27.6809701519       19.5788369928        7.4652519163
  H        27.4699313905       19.8022834541        9.0155967809
