     575
 i =      163, E =     -4794.9430958128
  C        11.8587333295       14.0534549740       13.7364726350
  C        12.4562208545       12.8905400314       13.0182078162
  C        11.7045966266       12.1717384181       12.0763881366
  C        12.2809986435       11.1095796448       11.3840001425
  C        13.6215281830       10.7396800759       11.6118702767
  C        14.3546165324       11.4431116904       12.5855028400
  C        13.7817053114       12.5080473037       13.2770444700
  C        14.2610653430        9.6490262881       10.8384826437
  C        14.2564108088        9.6569888820        9.4167877050
  C        13.7433513806       10.7591621578        8.6628789132
  C        49.1268998835       21.2332560180       13.8745188069
  C        48.5502095641       22.4012079713       13.1474856601
  C        49.3001777375       23.0684564632       12.1663892430
  C        48.7332259855       24.1076006196       11.4332170047
  C        47.4027294696       24.5093371408       11.6619653698
  C        46.6718627300       23.8605732791       12.6756158104
  C        47.2343317003       22.8156660530       13.4049339916
  C        46.7724353041       25.5869961881       10.8647015373
  C        46.7613956269       25.5573466577        9.4429440492
  C        47.2612806212       24.4422306739        8.6994484625
  C        14.8603169702        8.5706397259        8.7035176383
  C        14.8917830662        8.5970378878       11.5151275579
  C        49.1132622171       21.2035693058        2.1504316112
  C        48.5279352598       22.3649117382        2.8775956383
  C        49.2670819246       23.0254970450        3.8706619299
  C        48.6907227919       24.0600138909        4.6021473518
  C        47.3603591249       24.4568999749        4.3637922736
  C        46.6400429486       23.8121468629        3.3400975232
  C        47.2136251533       22.7762804520        2.6082926556
  C        46.7218874369       25.5318444906        5.1548141342
  C        46.7335826866       25.5281513262        6.5765145892
  C        47.2489922312       24.4289243482        7.3328963003
  C        40.6370463237       17.1582268103        7.3265640488
  C        40.6587896912       17.1847904312        4.5177929196
  C        11.8829984338       14.0865205034        2.2906151488
  C        12.4722986930       12.9107296133        2.9947939886
  C        11.7148957103       12.1777094067        3.9211441137
  C        12.2814940858       11.0952661444        4.5895494460
  C        13.6202329634       10.7213591798        4.3575138636
  C        14.3580513521       11.4366870719        3.3964105328
  C        13.7926174888       12.5178457446        2.7237256019
  C        14.2538504057        9.6246324231        5.1279156874
  C        14.2526100977        9.6446570586        6.5497514683
  C        13.7428289627       10.7536454396        7.2968333593
  C        22.5117428514        3.2440165586       13.7483178671
  C        23.2265671639        4.3489509961       13.0490792412
  C        24.2227587326        4.0682126633       12.1023402237
  C        24.8499156126        5.1074521567       11.4201660299
  C        24.4965192144        6.4492040947       11.6650762494
  C        23.5287427533        6.7215218731       12.6490040051
  C        22.8967895698        5.6840795685       13.3294202806
  C        25.1021327264        7.5553050846       10.8892667544
  C        25.0710895283        7.5494224471        9.4679827418
  C        24.3658398360        6.5517785399        8.7225190377
  C        38.3032076995       31.9296214433       13.8439297748
  C        37.5751799059       30.8393258918       13.1343920788
  C        36.6176602482       31.1413606987       12.1541628126
  C        36.0029703739       30.1196015213       11.4358415373
  C        36.3309739004       28.7710495669       11.6767455806
  C        37.2584617669       28.4764994156       12.6936870839
  C        37.8775294643       29.4969377675       13.4105081593
  C        35.7312283955       27.6781503994       10.8794888566
  C        35.7643424617       27.6927841061        9.4582771488
  C        36.4712849310       28.6946930972        8.7213204344
  C        25.6941676139        8.6190447666        8.7479316728
  C        25.7026835159        8.6282854976       11.5598210736
  C        38.3290700618       31.9623645912        2.1612023952
  C        37.6083181370       30.8888967888        2.9030053042
  C        36.6821233666       31.1968663973        3.9111330090
  C        36.0737035267       30.1776430218        4.6409660094
  C        36.3772400780       28.8253839487        4.3856892901
  C        37.2806321091       28.5274250267        3.3472189132
  C        37.8913922102       29.5430999263        2.6189047630
  C        35.7710344876       27.7255293763        5.1697546423
  C        35.7845246548       27.7172884297        6.5916230570
  C        36.4806163447       28.7066612755        7.3547892752
  C        46.1355728464       26.6207827750        7.2866514435
  C        46.0879400387       26.5802129346        4.4787598084
  C        22.4598647420        3.2558781263        2.2629945045
  C        23.1514453945        4.3653032818        2.9867986949
  C        24.1531850092        4.0807194518        3.9283575850
  C        24.7786778867        5.1118951643        4.6249070526
  C        24.4226727047        6.4571776634        4.4022458779
  C        23.4438889966        6.7350472088        3.4293417379
  C        22.8136085064        5.7041050753        2.7334239380
  C        25.0523552967        7.5557670767        5.1764564552
  C        25.0460260905        7.5491043257        6.5992118729
  C        24.3520653134        6.5526267714        7.3559158198
  C        26.6210561548       17.8600488177       13.7787419066
  C        25.3125619521       17.9043672348       13.0515395745
  C        25.0476113594       18.9120694641       12.1105828034
  C        23.8350192220       18.9344121953       11.4232448917
  C        22.8502846997       17.9524353678       11.6565829473
  C        23.1118084506       16.9668777457       12.6264744115
  C        24.3267137597       16.9395122697       13.3108091869
  C        21.5760745203       17.9411395599       10.8934384346
  C        21.5753840745       17.9207350405        9.4712791560
  C        22.7810904728       17.7994449134        8.7104848341
  C        34.4401653417       17.1955131260       13.9177044458
  C        35.7318039876       17.1544754173       13.1677451967
  C        35.9438377125       16.1842797573       12.1758785932
  C        37.1230189696       16.1798541295       11.4357597770
  C        38.1233709637       17.1428694496       11.6712972048
  C        37.9142830181       18.0940328537       12.6873779067
  C        36.7311583488       18.1049819408       13.4226706754
  C        39.3790747579       17.1549172935       10.8878131162
  C        39.3768546847       17.1730497113        9.4667309595
  C        38.1706680767       17.2953271893        8.7073819687
  C        20.3288089492       17.9370265437        8.7629741894
  C        20.3517431570       17.9431538346       11.5762960969
  C        34.4798754152       17.2461365224        2.1830662860
  C        35.7843773080       17.1767229490        2.9055740973
  C        36.0042238669       16.1904689976        3.8783395063
  C        37.1890792060       16.1781244058        4.6087481244
  C        38.1819070266       17.1510163940        4.3837039997
  C        37.9692239409       18.1122529990        3.3785254548
  C        36.7816538086       18.1298446248        2.6518435958
  C        39.4273940701       17.1729530349        5.1807027602
  C        39.4015130531       17.1828323150        6.6012590326
  C        38.1821852417       17.2978879175        7.3408161926
  C        35.1544720483       26.6378529612        7.2953855877
  C        35.1786249974       26.6563379591        4.4863525342
  C        26.5678554000       17.8234846065        2.3300930344
  C        25.2520981068       17.8705093442        3.0361958784
  C        24.9836404818       18.8834274976        3.9690425806
  C        23.7661841294       18.9097735600        4.6435680145
  C        22.7880113529       17.9232149942        4.4077968628
  C        23.0501776729       16.9352020019        3.4417567573
  C        24.2686758435       16.9069246670        2.7658427629
  C        21.5248581313       17.9065695610        5.1814329701
  C        21.5493887132       17.9015665134        6.6027288756
  C        22.7687185232       17.7902052495        7.3442610002
  C        14.0458786905       17.8286010348        2.2941399682
  C        15.3494698910       17.8851098632        3.0204418851
  C        15.6060085943       18.8894102642        3.9668471352
  C        16.8144487951       18.9101187455        4.6604919863
  C        17.8001230715       17.9293681274        4.4295614086
  C        17.5482310543       16.9489669933        3.4513690742
  C        16.3392444976       16.9237071870        2.7592838198
  C        19.0690975192       17.9133632479        5.1982585817
  C        19.0681392959       17.9128954411        6.6206003558
  C        17.8613731904       17.8143937295        7.3823035746
  C        46.8074991567       17.2207050208        2.1647901520
  C        45.5204826342       17.1663171169        2.9138106452
  C        45.3141744085       16.1947921261        3.9050410385
  C        44.1345929954       16.1863462789        4.6442176393
  C        43.1334195710       17.1493284724        4.4122825860
  C        43.3372545784       18.1007604719        3.3950285928
  C        44.5174907762       18.1133931332        2.6573540923
  C        41.8809494559       17.1681882918        5.1994067951
  C        41.8849613197       17.1695834221        6.6207211705
  C        43.0929490747       17.2627650054        7.3811732777
  C        20.3151597808       17.9262812979        7.3282667534
  C        20.2927851418       17.8927730659        4.5153838027
  C        46.7860868230       17.2315419964       13.8849998930
  C        45.4820677795       17.1291930540       13.1715461790
  C        45.2608168693       16.1359936361       12.2057526505
  C        44.0723400651       16.1166521611       11.4802306609
  C        43.0767385290       17.0872314508       11.7043842877
  C        43.2874978589       18.0487157198       12.7099867855
  C        44.4771643466       18.0747729682       13.4301248293
  C        41.8322349658       17.1193981515       10.9061580890
  C        41.8602552661       17.1428995300        9.4857292604
  C        43.0812536117       17.2475514201        8.7475215134
  C        46.1533397253       26.6372018745        8.7211977275
  C        46.1624854216       26.6561173539       11.5308418484
  C        14.0454725154       17.8320088327       13.7039693231
  C        15.3666358761       17.9074901499       13.0140128893
  C        15.6394832913       18.9239188337       12.0863936163
  C        16.8685072981       18.9624382780       11.4317691665
  C        17.8521162216       17.9837435217       11.6791436240
  C        17.5862745069       16.9964294367       12.6452717267
  C        16.3591990026       16.9573568473       13.3033479746
  C        19.1190238821       17.9599509390       10.9097164824
  C        19.0940495581       17.9355073158        9.4883281674
  C        17.8739792969       17.8244378359        8.7482350741
  C        28.8092540469       14.0932468005        2.3990420810
  C        28.1925222638       12.9203403695        3.0877351266
  C        28.9187326368       12.1669413853        4.0218520085
  C        28.3170045097       11.0930148770        4.6735275523
  C        26.9753584396       10.7477932868        4.4132990077
  C        26.2704353569       11.4812550182        3.4424957192
  C        26.8698254532       12.5559619297        2.7902967869
  C        26.3057673945        9.6674235246        5.1734536279
  C        26.2962547376        9.6922994851        6.5942886394
  C        26.8050983875       10.8028884988        7.3398838387
  C        32.1771706423       21.2416431860        2.1480527282
  C        32.7744239231       22.4074329059        2.8674342421
  C        32.0273199551       23.0851663517        3.8429583849
  C        32.5995620140       24.1234024062        4.5719657484
  C        33.9342226109       24.5116384685        4.3454198792
  C        34.6636945463       23.8524789124        3.3381924540
  C        34.0937863561       22.8087417463        2.6113594156
  C        34.5650166371       25.5858915841        5.1457144267
  C        34.5602848456       25.5557633081        6.5671967294
  C        34.0509574339       24.4407710930        7.3049774473
  C        25.6857236823        8.6153006477        7.3134135053
  C        25.6672441805        8.6181306486        4.4999738962
  C        32.1040035700       21.2260801529       13.8779491745
  C        32.6980479938       22.3741624265       13.1295863251
  C        31.9664840411       23.0320733609       12.1289320240
  C        32.5489155297       24.0612008174       11.3926096015
  C        33.8766290134       24.4622528063       11.6388325101
  C        34.5914086120       23.8168641657       12.6660598770
  C        34.0136798746       22.7823805546       13.3976133294
  C        34.5180063350       25.5435018436       10.8557703695
  C        34.5355802810       25.5342269522        9.4339946539
  C        34.0384131425       24.4307727002        8.6714695877
  C        40.6242704462       17.1489105501        8.7603177934
  C        40.6007591619       17.1445084725       11.5697586057
  C        28.7472571446       14.0665121816       13.8154789992
  C        28.1350672137       12.9193494768       13.0768795641
  C        28.8714892005       12.2215299407       12.1077466577
  C        28.2906629297       11.1654605075       11.4091721296
  C        26.9571297138       10.7810186827       11.6551179922
  C        26.2376707488       11.4664628778       12.6516142222
  C        26.8172782613       12.5230500595       13.3517514710
  C        26.3144752088        9.6909606303       10.8824395518
  C        26.3018909225        9.7044644436        9.4607255279
  C        26.8055050366       10.8100583258        8.7056901706
  C        18.1353863355        3.1809993701        2.3222476224
  C        17.4060344436        4.2782603081        3.0208413543
  C        16.3901771004        3.9999016430        3.9481891188
  C        15.7424505163        5.0398871840        4.6116861884
  C        16.0945817131        6.3835777527        4.3722106174
  C        17.0841294911        6.6531072934        3.4086282446
  C        17.7332159054        5.6157613026        2.7435758452
  C        15.4702339023        7.4912810735        5.1352346711
  C        15.4854970507        7.4906036362        6.5569455208
  C        16.1869600480        6.4969147323        7.3101069371
  C        42.9459112893       31.8595669481        2.0780092532
  C        43.6462890994       30.7718867420        2.8220180340
  C        44.5919180351       31.0932023001        3.8079851254
  C        45.1976257219       30.0876585798        4.5556622497
  C        44.8711061079       28.7346133405        4.3408648747
  C        43.9451786494       28.4202675940        3.3277564817
  C        43.3363587484       29.4254144765        2.5797218507
  C        45.4886972088       27.6553071469        5.1440453111
  C        45.4928408452       27.6808996043        6.5657387392
  C        44.8057615716       28.6889537863        7.3123593869
  C        14.8565700198        8.5631243135        7.2692983660
  C        14.8750010546        8.5630577911        4.4566301140
  C        42.9464641549       31.9616096222       13.8038868211
  C        43.6916891263       30.8854581254       13.0903560580
  C        44.6564036847       31.1913646701       12.1181885526
  C        45.2779442863       30.1717711820       11.4004779345
  C        44.9540631742       28.8214709608       11.6380244099
  C        44.0204180567       28.5238071818       12.6486441520
  C        43.3921342377       29.5405761387       13.3608055464
  C        45.5631132807       27.7240653939       10.8527833023
  C        45.5333755454       27.7173593823        9.4314878450
  C        44.8270324662       28.7075821973        8.6785443737
  C        35.1431447676       26.6260392129        8.7300505422
  C        35.1266896363       26.6025796053       11.5397538335
  C        18.1485545258        3.2469851813       13.7014670574
  C        17.4299308229        4.3438293112       12.9921654017
  C        16.4145644147        4.0525377905       12.0687840779
  C        15.7662309838        5.0831719326       11.3934033255
  C        16.1210653262        6.4283828860       11.6159753676
  C        17.1126298440        6.7117846196       12.5730295171
  C        17.7603272017        5.6828724798       13.2527818303
  C        15.4905716329        7.5240918181       10.8435352955
  C        15.4964802340        7.5074999898        9.4224017898
  C        16.1931607587        6.5057316379        8.6757125740
  H        10.6725016123       12.4659315329       11.8992727244
  H        11.6947701350       10.5511632336       10.6573610372
  H        15.3916096572       11.1684340968       12.7673401630
  H        14.3511373823       13.0711939039       14.0125620403
  H        13.3763977576       11.6313089709        9.1961930294
  H        50.3228517072       22.7483664982       11.9815457818
  H        49.3196503827       24.6228175028       10.6755589835
  H        45.6424237051       24.1614488140       12.8589205260
  H        46.6633808135       22.2905168163       14.1671333276
  H        47.6298153425       23.5758475636        9.2411267348
  H        14.8721053095        8.5882549144       12.6034348863
  H        50.2870856447       22.7025719567        4.0656670696
  H        49.2690651769       24.5753888336        5.3657431217
  H        45.6107049176       24.1095356199        3.1509024684
  H        46.6528548022       22.2542555158        1.8366014240
  H        47.6077419870       23.5517903933        6.8020040680
  H        40.6664216166       17.1507409102        3.4300718615
  H        48.6870341088       14.0949351649       15.7949236469
  H        10.6814771663       12.4668727186        4.0986868609
  H        11.6897819581       10.5249676168        5.3023882282
  H        15.3934020789       11.1586366821        3.2102651715
  H        14.3648764007       13.0870371263        1.9949964047
  H        13.3760724294       11.6222928137        6.7582034055
  H        47.9302616262       14.2179972021        1.7160512518
  H        47.7800305877       14.3733685261       14.4900390099
  H        49.0844694510       18.5528914140        2.8726639552
  H        10.4161824952       14.1342404602        0.0037965203
  H        24.4828875539        3.0294499767       11.9114024130
  H        25.6224140490        4.8900391724       10.6857348480
  H        23.2490412127        7.7547054307       12.8441866824
  H        22.1271565806        5.8844540393       14.0707936135
  H        23.8046858573        5.7953922189        9.2634633174
  H        36.3802866483       32.1841714571       11.9573529969
  H        35.2601463818       30.3567623113       10.6774061101
  H        37.5188126886       27.4378208140       12.8865416234
  H        38.6196180457       29.2779351095       14.1745581506
  H        37.0374044767       29.4435180599        9.2675945027
  H        25.7399212768        8.6101355341       12.6475424865
  H        36.4601936630       32.2409283284        4.1201623766
  H        35.3501060884       30.4215427315        5.4156456413
  H        37.5263129832       27.4873077360        3.1434614351
  H        38.6117376924       29.3184049972        1.8361404396
  H        37.0549694671       29.4642320765        6.8293848001
  H        46.1093689756       26.5876627243        3.3907247461
  H        44.6682484634       35.1162114612       15.8088504496
  H        24.4323879368        3.0429199986        4.0957347800
  H        25.5592526051        4.8844549234        5.3477684829
  H        23.1575248599        7.7691182733        3.2485349997
  H        22.0420455251        5.9155926156        1.9967195503
  H        23.7797295832        5.7974991787        6.8249407202
  H        44.9537861572       34.3903952051        1.7003169172
  H        44.9016961250       34.2067309011       14.4856169923
  H        40.6658697112       33.2090601844        2.8582078989
  H        23.1503183600        1.9579506467        0.0105195166
  H        25.8050909808       19.6748509520       11.9417688350
  H        23.6313339767       19.7235877881       10.7022988738
  H        22.3632434416       16.1999789306       12.8152524219
  H        24.5397380930       16.1659515805       14.0450840304
  H        23.7206418799       17.6814485518        9.2424651390
  H        35.1694743576       15.4415032972       11.9986848251
  H        37.2882465447       15.4193313580       10.6755870779
  H        38.6794227833       18.8452007094       12.8725151609
  H        36.5518042295       18.8525556784       14.1920142104
  H        37.2315428413       17.4160156089        9.2396414595
  H        20.3591403645       17.9822930850       12.6641822297
  H        35.2268076891       15.4511435383        4.0565637715
  H        37.3605530025       15.4107145322        5.3605038043
  H        38.7309832578       18.8686676311        3.2011650657
  H        36.5931063539       18.8887429522        1.8960844318
  H        37.2519524692       17.4191000420        6.7932555606
  H        35.1481062177       26.6840085366        3.3987820489
  H        28.5031804129       21.0755055188       15.9665221155
  H        25.7413971214       19.6435151521        4.1453165029
  H        23.5562983258       19.7000403012        5.3612210992
  H        22.3025099050       16.1672843101        3.2538953620
  H        24.4880528224       16.1333038955        2.0337423524
  H        23.6990129404       17.6657989687        6.7979515648
  H        29.0122509480       21.7130565226        1.7633700908
  H        29.1755104603       21.7295112053       14.6246118207
  H        32.1182102754       18.5606179209        2.9765968582
  H        27.3688870571       19.0230324502        0.0835592146
  H        14.8480069413       19.6492813374        4.1433210266
  H        17.0101478136       19.6951533450        5.3877787413
  H        18.2990623358       16.1839488826        3.2644146647
  H        16.1328835376       16.1538037124        2.0196060279
  H        16.9188324951       17.6977083140        6.8553403318
  H        46.0949266398       15.4604525290        4.0887467059
  H        43.9730218244       15.4256086064        5.4047333208
  H        42.5712283589       18.8517186714        3.2133126570
  H        44.6932763312       18.8617063498        1.8882009365
  H        44.0353175031       17.3777056497        6.8532315910
  H        20.2863740932       17.9197449154        3.4271910063
  H        46.0359482198       15.3948329777       12.0246339384
  H        43.9028184196       15.3471662697       10.7302174726
  H        42.5229458355       18.8017146014       12.8893926503
  H        44.6629547227       18.8366598937       14.1830837856
  H        44.0147125795       17.3495140834        9.2933935513
  H        46.1993599640       26.6827167736       12.6182858467
  H        52.7412059724       21.0626657165        0.1998096701
  H        14.8785111124       19.6773012669       11.8950816563
  H        17.0793390544       19.7534076229       10.7152302226
  H        18.3373023670       16.2346014354       12.8439708332
  H        16.1383427168       16.1822282539       14.0331371621
  H        16.9409018236       17.7154715940        9.2928050876
  H        52.3225174473       21.6733549679       14.2891943719
  H        52.0133201434       21.7021501870        1.5007833403
  H        49.0677612102       18.6078740708       13.1989624861
  H        13.2477615468       19.0163674611       15.9723407381
  H        29.9543722919       12.4354487111        4.2189370248
  H        28.8813965632       10.5068831263        5.3956931170
  H        25.2338554081       11.2240109176        3.2343988182
  H        26.3244344823       13.1433194372        2.0556123147
  H        27.1700814844       11.6698455511        6.7976232732
  H        31.0018854523       22.7715737801        4.0239146225
  H        32.0152575225       24.6488515690        5.3242651310
  H        35.6965729890       24.1434793257        3.1579471956
  H        34.6617589347       22.2738600655        1.8535593971
  H        33.6919459681       23.5745647423        6.7567369971
  H        25.6954258542        8.5998972787        3.4119009929
  H        30.9434841826       22.7185676244       11.9342994954
  H        31.9740891737       24.5729963376       10.6237957677
  H        35.6192764832       24.1154471005       12.8616472572
  H        34.5697947549       22.2622368644       14.1741354873
  H        33.6694946581       23.5565480540        9.2001412863
  H        40.5915526825       17.1012558924       12.6571899409
  H        32.5093966009       14.1454987298        0.2606977422
  H        29.9007534560       12.5207465954       11.9225748894
  H        28.8696441135       10.6190485134       10.6676871557
  H        25.2060284206       11.1819211573       12.8484734612
  H        26.2594343670       13.0680015999       14.1096888643
  H        27.1698035156       11.6825357063        9.2400932189
  H        33.3110203285       14.2310563943       14.4640803405
  H        33.4094652994       14.4142562342        1.6038385429
  H        32.1323640696       18.5196845542       13.2325133641
  H        30.2172310414       14.1864692598        0.0797633913
  H        16.1179941997        2.9634009206        4.1344351167
  H        14.9528617275        4.8205111304        5.3271960154
  H        17.3667364619        7.6859700437        3.2157007278
  H        18.5154004576        5.8183786441        2.0158744608
  H        16.7534403202        5.7395240756        6.7765948890
  H        44.8282637428       32.1402862328        3.9820766903
  H        45.9375657729       30.3414152840        5.3115332277
  H        43.6823970054       27.3782061206        3.1577286781
  H        42.5996497001       29.1900961208        1.8151397741
  H        44.2304333264       29.4367314532        6.7740385535
  H        14.8512337866        8.5462693679        3.3684097790
  H        44.9000350664       32.2340452491       11.9268449280
  H        46.0249405527       30.4129950824       10.6473298502
  H        43.7633593147       27.4840837292       12.8401108234
  H        42.6455279423       29.3178066045       14.1191554620
  H        44.2685518647       29.4704769164        9.2131476821
  H        35.0823983728       26.6156933120       12.6271406924
  H        36.6050783999       35.1340520585        0.1857260064
  H        16.1433501935        3.0129650568       11.8992179896
  H        14.9737585871        4.8563420998       10.6834749547
  H        17.3962992589        7.7472345315       12.7497727946
  H        18.5433662851        5.8932885641       13.9773839791
  H        16.7644950679        5.7554261542        9.2141687666
  H        36.2784867903       34.4825551587       14.2680759780
  H        36.3806810900       34.2093120033        1.5048604422
  H        40.5803097210       33.2026489517       13.1484508126
  H        17.4706831099        1.9476019794       15.9689617252
  H        28.9048464774       19.2192411715        4.4376856126
  H        29.9825948318       19.7344431163       11.6534913373
  H        31.8519027826       15.7291902534       11.5998548058
  H        31.3133936543       15.5905131473        4.5195329220
  H        28.2850137568       17.5114436638        6.7380243614
  H        29.6157463711       15.0953946015        6.4019507345
  H        31.7843667368       19.8070889444        9.5452447696
  H        33.0827899610       16.8210280854        9.5024071830
  H        28.8094115941       16.7794132250        9.3676670986
  H        18.8532537875        0.8689708134        4.3403800658
  H        40.5280335276       35.2289888312       11.9469222874
  H        42.3240730659       34.4188650107       11.5852874714
  H        22.0876027408        0.6920736434        4.3566840219
  H        11.5966614288       18.7130332371        4.3878130701
  H        52.2648034538       18.4309656810       11.6719762281
  H        49.2546780272       16.4770440189       11.5796166682
  H        10.1495368742       15.7982209495        4.2981792849
  H        50.8499073332       17.6924746168       11.9491158377
  H        10.0458032082       17.3944673860        4.0570803769
  H        20.2144627322        0.0021673042        4.0471043151
  H        39.1837094663       36.1244069038       11.6812370313
  H        32.2584664103       18.4367030567        6.8714036620
 Ni        30.8606003400       17.7194987349       10.8263117607
 Ni        31.1144905966       16.3960456992        7.9963654866
 Ni        29.8845664834       18.9176185091        8.1574677834
 Ni        30.2658561533       17.5243560083        5.2480948584
  O        10.6499429651       14.3651144210       13.4807142327
  O        12.6131733361       14.6575246111       14.5787784682
  O        49.1482111325       16.8458891742       15.9846044331
  O        50.3503330870       20.9358008379       13.6429262805
  O        48.3486157614       20.5933753422       14.6607795350
  O        11.0517159912       17.0538444357       14.4955813546
  O        50.3210475912       20.8816687813        2.4119459076
  O        48.3467710561       20.5868248655        1.3322707881
  O        49.5438435940       18.2484374098        2.0733667322
  O        12.3592671596       18.6246751888        0.0047838891
  O        48.6932635341       14.1485551586       14.7461948453
  O         8.2099138186       14.2103244216        1.3276208425
  O        10.7353764438       14.5067512809        2.6694194966
  O        12.5718149907       14.5828275587        1.3335872468
  O        22.8444348984        2.0429015796       13.4821806031
  O        21.6053038734        3.5920997340       14.5847444851
  O        42.0582460628       34.1374111760       15.9739084313
  O        37.9818866452       33.1377881443       13.5673911877
  O        39.2184412452       31.5763663324       14.6618713035
  O        20.3083556341        1.0395235206       14.4969480495
  O        38.0248313257       33.1860285975        2.4202024290
  O        39.2193703017       31.5839850582        1.3313320303
  O        40.6523056314       33.7694026682        2.0653536243
  O        18.2554911134        1.3766117828        0.0018667552
  O        44.6222487279       35.1005243246       14.7536577689
  O        24.2053969925        0.0000289654        1.3259166068
  O        22.7529163521        2.0579796755        2.5889903378
  O        21.6241792231        3.5958705352        1.3473402380
  O        27.4918707030       18.7512180225       13.4925911237
  O        26.7610343757       16.9291894814       14.6463697747
  O        30.6402863927       19.3566283398        0.0746227312
  O        33.5915626406       16.2737713714       13.6645005034
  O        34.2754317790       18.1688876195       14.7318457864
  O        29.5724530584       17.0589732045       14.5698495841
  O        33.6244054885       16.3288495841        2.4153123577
  O        34.3059170020       18.2483602168        1.4109472899
  O        31.6524992838       18.3155588145        2.1610137973
  O        30.3194261879       15.1519614204        0.0935110989
  O        28.5543223745       21.0298092764       14.8967957521
  O        28.5110607860       20.9558742180        1.4155407283
  O        27.4531062841       18.6771278317        2.6652831058
  O        26.6915170983       16.9258309576        1.4208797734
  O        13.1483089158       18.6930502671        2.5924705097
  O        13.9192099098       16.9162086648        1.4101435719
  O        50.5964948852       19.3503531782        0.0255065723
  O        47.6837792558       16.3269692603        2.4222680350
  O        46.9528662902       18.1761706270        1.3288498029
  O        11.0698232055       17.0155240555        1.4947727039
  O        47.6758468803       16.3355954382       13.6478398913
  O        46.9286177673       18.2358981045       14.6603012834
  O        49.5688807317       18.3176930907       13.9771399624
  O        10.3186894314       15.1000800646        0.0021785483
  O        52.6707503832       21.0278804435        1.2469289707
  O        12.1468619444       20.8912240000       14.6681120495
  O        13.1080522962       18.6137036262       13.3205462069
  O        13.9572284317       16.9870293193       14.6602744833
  O        29.9927813385       14.4418796575        2.7401284138
  O        28.0891653829       14.6526287271        1.5016806123
  O        32.1422616167       16.8504940113        0.0921116977
  O        30.9649275051       20.9533463291        2.4129403777
  O        32.9455616982       20.6033185471        1.3426583220
  O        29.5677118679       17.0706008735        1.5822334832
  O        30.8726623590       20.9474171240       13.6582912902
  O        32.8771518099       20.5866753481       14.6634757651
  O        31.6885829937       18.2545826497       14.0530765853
  O        28.2573272139       18.6323450158        0.0824815325
  O        32.4935138354       14.2126123065        1.3363050407
  O        32.4068672165       14.2122763741       14.8200923697
  O        29.9183109695       14.4356678998       13.4871170286
  O        28.0380069406       14.5880032111       14.7479613087
  O        17.8892051520        1.9666773489        2.6679420298
  O        18.9562003686        3.5271813542        1.4131122352
  O        39.1686229563       34.1388775137        0.0022907950
  O        43.2802482134       33.0589770355        2.3368179211
  O        42.0346025384       31.5064222904        1.2467497354
  O        20.3176503354        1.0367661825        1.4853218361
  O        43.2760969341       33.1825598679       13.5697560238
  O        42.0053081867       31.5840911203       14.5778762831
  O        40.5790706020       33.7750840815       13.9307453328
  O        22.3673137741        1.3845804077        0.0030416409
  O        36.6727613947       35.0998289663        1.2383574261
  O        16.4455780687        0.0643028635       14.6631819617
  O        17.9364758312        2.0433880339       13.3212368998
  O        18.9189867847        3.5931721235       14.6607769546
  O        29.8691332448       18.8971498333       12.1423337940
  O        29.7453451661       18.9732734557        4.0058409535
  O        31.3396086607       16.3495952253       12.1494955967
  O        31.3837706393       16.4191535255        4.0069488595
  O        32.1510308920       16.5636725078        9.5788562061
  O        29.6661453301       17.2185782677        9.2373211159
  O        30.3286528349       15.7525054446        6.4036562264
  O        31.3479895320       18.1005124060        6.9182639257
  O        30.8877242143       19.4909629815        9.7386311190
  O        28.7679671296       18.3220395462        6.5034775033
  O        39.4568218604       35.2437887268       11.9968272213
  O        19.1411552368        0.0045025865        3.9956582454
  O        41.9695413269       35.1725817317       12.0820426124
  O        21.6912013101       -0.0693287314        3.9010004570
  O        51.3650780419       18.6142362711       12.0002637341
  O        10.7509929454       18.7471943734        3.9100424141
  O        50.0792545819       16.4127889732       12.0866315652
  O         9.5239099368       16.4831535598        3.9963352015
 Zr         9.2971303362       16.0526812993       14.1773809751
 Zr        49.8366025691       16.0065493673        1.7513921178
 Zr        22.0732777801        0.0299426363       14.1839472880
 Zr        42.4609344460       35.1536018733        1.8060719107
 Zr        29.5937161585       19.0849012934       14.2723816420
 Zr        29.5674314679       19.1687409492        1.8640868034
 Zr        11.0381574994       19.0519992729        1.8328150032
 Zr        11.0441756506       19.1548378952       14.2458444317
 Zr        31.3538563356       16.1047894507        1.8796081873
 Zr        31.3886547807       16.0112760111       14.2926671100
 Zr        18.6011131889       -0.0012468731        1.7683892756
 Zr        18.5064627940       -0.0076333003       14.2086362980
 Zr        12.3021412739       16.3234885577       15.9851746467
 Zr        48.6172481746       18.8333959591        0.0152601722
 Zr        20.3151067292        2.4734423858       15.9853681969
 Zr        40.6435154464       32.6872448613       15.9731944408
 Zr        28.3436212467       16.3363519188        0.0844526400
 Zr        32.6224533930       18.8349847528        0.0672242083
  O        28.0178154265       20.0763930510        8.2602948378
  H        27.8042994259       19.5310857217        7.4535672087
  H        27.3972060852       19.8230601716        8.9645521055
