     578
 i =      236, E =     -4812.1833973914
  C        11.8587560600       14.0536250523       13.7364364473
  C        12.4563374181       12.8906855290       13.0180138728
  C        11.7044891557       12.1714846996       12.0767091595
  C        12.2809000653       11.1092715415       11.3843753601
  C        13.6215936678       10.7397915283       11.6118212550
  C        14.3549433663       11.4437659437       12.5848307623
  C        13.7820668359       12.5087745680       13.2763120369
  C        14.2611098767        9.6490619023       10.8384891142
  C        14.2565362922        9.6569896287        9.4167912758
  C        13.7433574550       10.7591323227        8.6629204776
  C        49.1268971934       21.2332178173       13.8745678813
  C        48.5500709775       22.4011787899       13.1474106863
  C        49.3001577837       23.0686762571       12.1666021574
  C        48.7332058843       24.1078197014       11.4334044617
  C        47.4026063340       24.5092705366       11.6619382490
  C        46.6715390754       23.8601885145       12.6752145437
  C        47.2340434586       22.8152878271       13.4045424129
  C        46.7723305698       25.5869641199       10.8646751303
  C        46.7612468571       25.5573655238        9.4429148654
  C        47.2611620195       24.4422416231        8.6994532883
  C        14.8604471047        8.5706144598        8.7035611238
  C        14.8917634009        8.5970937721       11.5151935237
  C        49.1132460405       21.2034434463        2.1504852004
  C        48.5277780248       22.3647554188        2.8778194701
  C        49.2670830273       23.0256672075        3.8705201515
  C        48.6906878558       24.0602036329        4.6019778030
  C        47.3601954150       24.4567298028        4.3638420789
  C        46.6396665590       23.8115889486        3.3405669266
  C        47.2132970542       22.7757001661        2.6088087433
  C        46.7217436077       25.5317434502        5.1548155737
  C        46.7334329979       25.5281617691        6.5765174205
  C        47.2488392424       24.4289344116        7.3329025350
  C        40.6369813449       17.1668706891        7.3267280749
  C        40.6584091295       17.1871065161        4.5180590162
  C        11.8830218578       14.0866625487        2.2906197149
  C        12.4725144799       12.9109160524        2.9950107041
  C        11.7148357742       12.1773224655        3.9206497833
  C        12.2814839162       11.0948825951        4.5890747412
  C        13.6204788202       10.7215988579        4.3576525876
  C        14.3586813328       11.4376752405        3.3974329315
  C        13.7932090134       12.5188384096        2.7247450332
  C        14.2540671708        9.6247668257        5.1279992783
  C        14.2528185181        9.6446991894        6.5498361123
  C        13.7428644048       10.7536332903        7.2968748882
  C        22.5122937711        3.2445826651       13.7475175954
  C        23.2283329535        4.3493290221       13.0471156285
  C        24.2248285154        4.0670103950       12.1010290163
  C        24.8541983180        5.1048673849       11.4184464919
  C        24.5033821768        6.4476821209       11.6619356828
  C        23.5347769718        6.7216810604       12.6447167834
  C        22.9005125572        5.6854042195       13.3255301502
  C        25.1140740525        7.5515331830       10.8855169579
  C        25.0868487687        7.5428403881        9.4638374967
  C        24.3767978305        6.5483843173        8.7187128621
  C        38.3032191381       31.9295345382       13.8440063653
  C        37.5752325551       30.8390444679       13.1347120414
  C        36.6178632794       31.1407741764       12.1542569703
  C        36.0033225377       30.1187525626       11.4361873946
  C        36.3313094472       28.7702677015       11.6775571617
  C        37.2586226962       28.4760185825       12.6947329507
  C        37.8775937917       29.4967359027       13.4112433232
  C        35.7316320218       27.6772933837       10.8803777404
  C        35.7647453981       27.6920228517        9.4592055105
  C        36.4726055360       28.6934089990        8.7224171908
  C        25.7195015251        8.6062489744        8.7425409591
  C        25.7158801494        8.6248750684       11.5547923708
  C        38.3293366206       31.9623036690        2.1614493788
  C        37.6092776924       30.8886159456        2.9037317398
  C        36.6832867717       31.1962417509        3.9121463957
  C        36.0755169099       30.1767464710        4.6421726134
  C        36.3795261233       28.8245772284        4.3868725722
  C        37.2829646251       28.5269758838        3.3483483190
  C        37.8931066907       29.5429153168        2.6198664515
  C        35.7732490906       27.7245895846        5.1707292754
  C        35.7858096718       27.7162809227        6.5925925997
  C        36.4823014061       28.7052687339        7.3559236326
  C        46.1354542824       26.6208230798        7.2866385527
  C        46.0877864947       26.5800821084        4.4787462132
  C        22.4606785674        3.2551464830        2.2624466128
  C        23.1557067214        4.3629474798        2.9856171603
  C        24.1579988883        4.0744626648        3.9253610726
  C        24.7879733147        5.1031290096        4.6214028871
  C        24.4357842494        6.4493981164        4.3994951456
  C        23.4562153425        6.7312979212        3.4287069826
  C        22.8212799631        5.7027034177        2.7334602146
  C        25.0715281879        7.5452133436        5.1724077937
  C        25.0657300722        7.5393295458        6.5950070952
  C        24.3647643609        6.5480927153        7.3521138691
  C        26.6202946774       17.8597445711       13.7802186269
  C        25.3111698621       17.9031689488       13.0555874658
  C        25.0588335410       18.8912233373       12.0912621945
  C        23.8459868175       18.9125723077       11.4049633196
  C        22.8496673961       17.9481331984       11.6598229844
  C        23.0991256961       16.9822727748       12.6530213830
  C        24.3137078033       16.9563232792       13.3375632135
  C        21.5769075829       17.9333443665       10.8949103538
  C        21.5762721178       17.9085034342        9.4722804511
  C        22.7814646758       17.7826300984        8.7114596564
  C        34.4404637803       17.1964416354       13.9182088967
  C        35.7312758138       17.1577657026       13.1670455907
  C        35.9391917137       16.1958794573       12.1663443697
  C        37.1183539973       16.1935708095       11.4262356379
  C        38.1227800329       17.1501824776       11.6707180755
  C        37.9173298398       18.0930639506       12.6952763042
  C        36.7340897513       18.1023004493       13.4302521279
  C        39.3786789026       17.1634186666       10.8878424405
  C        39.3768158220       17.1856342792        9.4667911437
  C        38.1713190667       17.3155640835        8.7076396984
  C        20.3296985043       17.9266566215        8.7636101078
  C        20.3517123283       17.9386343391       11.5766409906
  C        34.4795392369       17.2463666808        2.1835668451
  C        35.7838418125       17.1779755381        2.9063528021
  C        35.9983773559       16.2013121119        3.8898867434
  C        37.1833098355       16.1908284149        4.6201755725
  C        38.1813378719       17.1559388660        4.3844729611
  C        37.9735298139       18.1073120634        3.3688242965
  C        36.7858703065       18.1233396785        2.6424148165
  C        39.4269143968       17.1796603635        5.1810323186
  C        39.4014004199       17.1945234151        6.6016174183
  C        38.1828271209       17.3176097286        7.3411106010
  C        35.1545702597       26.6374084774        7.2962884031
  C        35.1813369593       26.6551517890        4.4872899870
  C        26.5700229797       17.8227707200        2.3326637501
  C        25.2540029348       17.8721822762        3.0372017522
  C        24.9900929072       18.8754796227        3.9815075867
  C        23.7723788823       18.9003724105        4.6554951090
  C        22.7890836507       17.9217860967        4.4081572527
  C        23.0465919606       16.9441042315        3.4301462495
  C        24.2652161365       16.9171503494        2.7548603720
  C        21.5261274754       17.9019728167        5.1818535664
  C        21.5504103319       17.8915356799        6.6033838943
  C        22.7689598602       17.7748923260        7.3451621847
  C        14.0463749184       17.8286098434        2.2941597790
  C        15.3500889627       17.8849734259        3.0200123380
  C        15.6056976191       18.8864893757        3.9696989224
  C        16.8141737987       18.9063844891        4.6633222331
  C        17.8013090150       17.9277278774        4.4292689390
  C        17.5504747042       16.9506207470        3.4473852954
  C        16.3414329904       16.9260338411        2.7553972480
  C        19.0701341110       17.9099018666        5.1982585300
  C        19.0690456893       17.9062169971        6.6207060645
  C        17.8621734236       17.8073453940        7.3821324810
  C        46.8072760051       17.2205909658        2.1647528604
  C        45.5201574146       17.1661478977        2.9134779811
  C        45.3141098020       16.1956289832        3.9057872003
  C        44.1345047481       16.1876566521        4.6449895058
  C        43.1329581112       17.1500623367        4.4121397355
  C        43.3364666069       18.1001084547        3.3934691318
  C        44.5166709259       18.1123924407        2.6557855975
  C        41.8806485493       17.1706548266        5.1995256958
  C        41.8849171552       17.1741671175        6.6208722103
  C        43.0930166087       17.2656044018        7.3813465215
  C        20.3160077984       17.9168876649        7.3287343247
  C        20.2939983143       17.8909815614        4.5156417960
  C        46.7859515664       17.2314463832       13.8851097625
  C        45.4817631184       17.1292319326       13.1721079246
  C        45.2604687434       16.1372411139       12.2050489112
  C        44.0718979925       16.1186884887       11.4796261315
  C        43.0762192804       17.0889845882       11.7048737191
  C        43.2868720578       18.0488286372       12.7121271375
  C        44.4765694520       18.0741272520       13.4321827983
  C        41.8318931858       17.1231214423       10.9064313740
  C        41.8601195612       17.1482982384        9.4859885271
  C        43.0812797247       17.2506832572        8.7477378561
  C        46.1532394260       26.6372592647        8.7211820638
  C        46.1624184366       26.6560845924       11.5308182570
  C        14.0457095368       17.8319655038       13.7039220320
  C        15.3667542213       17.9068427625       13.0141913001
  C        15.6392450621       18.9208740494       12.0838070609
  C        16.8682197931       18.9579629048       11.4290353402
  C        17.8523799899       17.9804021881       11.6789541556
  C        17.5869228611       16.9960168094       12.6482282043
  C        16.3599424191       16.9581489509       13.3064109564
  C        19.1192904601       17.9543961731       10.9097420696
  C        19.0946174713       17.9275706602        9.4883972925
  C        17.8747154422       17.8168762682        8.7481071080
  C        28.8111601606       14.0918652478        2.3961712209
  C        28.2016069534       12.9128425101        3.0806956109
  C        28.9361062979       12.1612775072        4.0092151804
  C        28.3437709311       11.0805252966        4.6578713173
  C        27.0025294159       10.7306626740        4.4033933023
  C        26.2887045505       11.4635452962        3.4384490634
  C        26.8800691950       12.5426870768        2.7863082773
  C        26.3374506077        9.6495153638        5.1662525303
  C        26.3338170879        9.6720309890        6.5870745815
  C        26.8623086143       10.7744053067        7.3318080287
  C        32.1785556114       21.2419693711        2.1481153946
  C        32.7756582689       22.4077470747        2.8681124042
  C        32.0267316151       23.0917426169        3.8376656914
  C        32.5990238081       24.1290994008        4.5674851621
  C        33.9362615955       24.5111729752        4.3465505691
  C        34.6682383964       23.8462557129        3.3451809981
  C        34.0980019361       22.8027016993        2.6183915795
  C        34.5666135302       25.5855143149        5.1468049744
  C        34.5596008445       25.5556623921        6.5681226301
  C        34.0476648594       24.4412921217        7.3054200905
  C        25.7134724720        8.6013693120        7.3078900271
  C        25.6906342367        8.6039810884        4.4947995410
  C        32.1037617302       21.2260286188       13.8797779483
  C        32.6995229101       22.3734633611       13.1304115142
  C        31.9652801281       23.0360288274       12.1348840780
  C        32.5475769449       24.0647322399       11.3978172508
  C        33.8775950325       24.4610532233       11.6390206390
  C        34.5952631346       23.8108521336       12.6609205167
  C        34.0176414157       22.7763851812       13.3928172275
  C        34.5181867409       25.5428908517       10.8561843835
  C        34.5345794594       25.5341710525        9.4345119665
  C        34.0353525406       24.4315371039        8.6719743584
  C        40.6242084377       17.1579437061        8.7604861108
  C        40.6003340462       17.1488164077       11.5698783034
  C        28.7470638392       14.0703282243       13.8134156965
  C        28.1359211218       12.9262268168       13.0662477742
  C        28.8852020899       12.2169202524       12.1145256610
  C        28.3119440793       11.1556334401       11.4164837917
  C        26.9725871481       10.7783753586       11.6453335437
  C        26.2396100421       11.4784586183       12.6210133694
  C        26.8123717189       12.5391368626       13.3215694820
  C        26.3364193200        9.6817554551       10.8759903253
  C        26.3340488216        9.6876544710        9.4547107333
  C        26.8588316518       10.7813958868        8.6971345897
  C        18.1353927072        3.1810511651        2.3222532429
  C        17.4060719713        4.2782409792        3.0207754222
  C        16.3907700642        3.9999007904        3.9487751309
  C        15.7430764857        5.0398830993        4.6122708759
  C        16.0945684591        6.3836578731        4.3721567624
  C        17.0834016296        6.6531590180        3.4077998573
  C        17.7324498180        5.6158046350        2.7427430778
  C        15.4703865312        7.4913725066        5.1352428279
  C        15.4856424631        7.4905992032        6.5569566775
  C        16.1872117338        6.4970204958        7.3101701844
  C        42.9459544031       31.8594474162        2.0780291108
  C        43.6462762204       30.7718464339        2.8219401335
  C        44.5917580460       31.0931730395        3.8080762511
  C        45.1974188337       30.0875979188        4.5557174041
  C        44.8710442011       28.7345112201        4.3408366051
  C        43.9452961861       28.4202217446        3.3275265363
  C        43.3364931979       29.4253505750        2.5794769686
  C        45.4885999993       27.6552155544        5.1440292037
  C        45.4927540012       27.6809436358        6.5657132175
  C        44.8057023962       28.6890152512        7.3123346654
  C        14.8567540712        8.5631221178        7.2693412061
  C        14.8751807859        8.5632198264        4.4566739781
  C        42.9465315983       31.9615176208       13.8038532123
  C        43.6917721438       30.8854948345       13.0904504355
  C        44.6562106231       31.1914080947       12.1179746752
  C        45.2777190744       30.1718093425       11.4002838621
  C        44.9540803543       28.8214626832       11.6380441071
  C        44.0208139822       28.5238188065       12.6490435966
  C        43.3925481989       29.5405776201       13.3612049596
  C        45.5630860708       27.7240812097       10.8527828943
  C        45.5333635161       27.7174541093        9.4314889879
  C        44.8269863958       28.7076352410        8.6785198437
  C        35.1429271986       26.6257112713        8.7308594930
  C        35.1272291713       26.6015113791       11.5404578513
  C        18.1485321380        3.2470162418       13.7014785376
  C        17.4298492990        4.3438007891       12.9923665047
  C        16.4150123156        4.0525231874       12.0683700430
  C        15.7667105451        5.0831447980       11.3929895685
  C        16.1209623230        6.4284403163       11.6160980511
  C        17.1118272148        6.7118236448       12.5739059383
  C        17.7594932852        5.6829200122       13.2536744041
  C        15.4905834945        7.5241421285       10.8436106430
  C        15.4965680471        7.5074760323        9.4224793975
  C        16.1933725750        6.5058023369        8.6757772869
  H        10.6722422427       12.4653946857       11.8999890376
  H        11.6945061098       10.5505460842       10.6581039469
  H        15.3921350353       11.1695429340       12.7662034946
  H        14.3516637290       13.0724099460       14.0113298920
  H        13.3763105805       11.6312126371        9.1962862288
  H        50.3229207162       22.7487342395       11.9819808402
  H        49.3197326181       24.6232148600       10.6759460209
  H        45.6419561342       24.1607500831       12.8582199742
  H        46.6629892805       22.2898187707       14.1664498118
  H        47.6297037405       23.5758850667        9.2411735228
  H        14.8720119199        8.5884084424       12.6034969340
  H        50.2872041713       22.7029449483        4.0652620669
  H        49.2691230653       24.5758180169        5.3653432778
  H        45.6101675447       24.1086198424        3.1516882472
  H        46.6524388607       22.2532994866        1.8374331416
  H        47.6076112103       23.5518187171        6.8019876196
  H        40.6659240209       17.1495048511        3.4304549572
  H        48.6870069580       14.0950293474       15.7948987972
  H        10.6812012405       12.4660532369        4.0976794447
  H        11.6895782107       10.5241279148        5.3013933190
  H        15.3943201151       11.1602755191        3.2119296200
  H        14.3656887127       13.0886927752        1.9967024451
  H        13.3760522007       11.6222262970        6.7581876003
  H        47.9301575915       14.2185220743        1.7159022732
  H        47.7800877758       14.3737587714       14.4900113161
  H        49.0843631449       18.5526537859        2.8726592668
  H        10.4160052775       14.1342604422        0.0038128799
  H        24.4838457182        3.0278210501       11.9108130411
  H        25.6268824416        4.8851476201       10.6848772115
  H        23.2560138731        7.7552303892       12.8394219555
  H        22.1305952559        5.8879630301       14.0660750500
  H        23.8101981533        5.7962296965        9.2598706725
  H        36.3805540589       32.1835279948       11.9570485133
  H        35.2607468902       30.3556843033       10.6774382848
  H        37.5190830755       27.4374239854       12.8879039378
  H        38.6196616568       29.2779661318       14.1753794967
  H        37.0391872626       29.4417494102        9.2688764056
  H        25.7465832834        8.6118099560       12.6428003817
  H        36.4608958368       32.2402178460        4.1211298393
  H        35.3520955619       30.4204013415        5.4170929069
  H        37.5292500170       27.4869810827        3.1446739127
  H        38.6134529484       29.3184443323        1.8370395820
  H        37.0574957392       29.4622924996        6.8306476694
  H        46.1091853410       26.5874082475        3.3907093319
  H        44.6682466748       35.1161263840       15.8088205574
  H        24.4340474834        3.0356391303        4.0915098435
  H        25.5689436116        4.8729667163        5.3429857081
  H        23.1731287623        7.7664256914        3.2487766769
  H        22.0491711397        5.9168584795        1.9980775846
  H        23.7883320467        5.7961434410        6.8210193952
  H        44.9537057262       34.3901928320        1.7000695366
  H        44.9017052987       34.2067998805       14.4854158969
  H        40.6660905153       33.2090500269        2.8581960924
  H        23.1506915979        1.9575148486        0.0101682146
  H        25.8284126004       19.6345932296       11.8953627560
  H        23.6548244767       19.6857561567       10.6638172041
  H        22.3418277904       16.2285580897       12.8592063604
  H        24.5174006746       16.1974090150       14.0895081900
  H        23.7220011792       17.6632778414        9.2414244163
  H        35.1617191004       15.4580428679       11.9821024025
  H        37.2802381985       15.4394832510       10.6590029610
  H        38.6854658257       18.8394365073       12.8872626204
  H        36.5574185231       18.8436667315       14.2061839326
  H        37.2327273806       17.4423915402        9.2394246939
  H        20.3585530433       17.9819800451       12.6643768036
  H        35.2167177203       15.4685861745        4.0768029075
  H        37.3505224213       15.4308328022        5.3803376856
  H        38.7391022934       18.8578589244        3.1831731720
  H        36.6010441922       18.8749839619        1.8785459904
  H        37.2531204617       17.4445139091        6.7939384879
  H        35.1522192572       26.6819705517        3.3996564232
  H        28.5025469231       21.0718223537       15.9647095486
  H        25.7521823437       19.6281013224        4.1697349599
  H        23.5674159774       19.6821147331        5.3836966040
  H        22.2951113015       16.1823284399        3.2327830711
  H        24.4810202276       16.1507158823        2.0142519025
  H        23.7001289183       17.6492813593        6.8006679097
  H        29.0230685696       21.7107794577        1.7541362546
  H        29.1806373620       21.7265531208       14.6277929768
  H        32.1217801764       18.5473071042        2.9827750467
  H        27.3687853730       19.0205747287        0.0869597080
  H        14.8468307484       19.6448554848        4.1489157240
  H        17.0088240768       19.6891643096        5.3933084824
  H        18.3023918307       16.1873922061        3.2575146043
  H        16.1361891367       16.1583968739        2.0130640365
  H        16.9196030535       17.6912510989        6.8551195939
  H        46.0950992785       15.4617692018        4.0904160367
  H        43.9732528215       15.4277689946        5.4064236499
  H        42.5700970683       18.8504723007        3.2107674054
  H        44.6920983854       18.8597871168        1.8856658495
  H        44.0356494042       17.3784626797        6.8534344830
  H        20.2877049909       17.9219948133        3.4275413524
  H        46.0356460141       15.3963868175       12.0228627359
  H        43.9024446876       15.3501760787       10.7286046970
  H        42.5221843722       18.8014119902       12.8926782000
  H        44.6622061619       18.8349442826       14.1862560202
  H        44.0149955602       17.3508738719        9.2934870351
  H        46.1992977677       26.6825934738       12.6182638519
  H        52.7412376206       21.0625981582        0.1997862085
  H        14.8779778789       19.6734026995       11.8903564828
  H        17.0787250150       19.7469917214       10.7102709774
  H        18.3385507305       16.2354014398       12.8492751479
  H        16.1395611507       16.1850270682       14.0384424250
  H        16.9414677296       17.7081694261        9.2924552573
  H        52.3224224803       21.6733158982       14.2892084508
  H        52.0130692645       21.7019487668        1.5006384563
  H        49.0676907767       18.6076842161       13.1989927587
  H        13.2479741841       19.0160317636       15.9723308996
  H        29.9683130064       12.4402097058        4.2088218740
  H        28.9155121935       10.4951456050        5.3748026742
  H        25.2520176606       11.2026623213        3.2355570095
  H        26.3287924092       13.1298563881        2.0558350128
  H        27.2525607086       11.6295725648        6.7873748493
  H        30.9978177868       22.7851471740        4.0098837851
  H        32.0141971786       24.6595630309        5.3157511470
  H        35.7032514919       24.1325500790        3.1697260436
  H        34.6675987792       22.2627851899        1.8653785533
  H        33.6868766238       23.5748435236        6.7583765284
  H        25.7149199135        8.5865745259        3.4066439353
  H        30.9396916205       22.7261866925       11.9476957476
  H        31.9715273094       24.5812992013       10.6331363266
  H        35.6250529724       24.1057023768       12.8520643306
  H        34.5756140265       22.2520050167       14.1651737328
  H        33.6658120145       23.5572267977        9.2001509496
  H        40.5909110311       17.1025933640       12.6571852077
  H        32.5102755689       14.1454261108        0.2621540974
  H        29.9219353119       12.5055551153       11.9524519087
  H        28.9024716282       10.5948437129       10.6947217202
  H        25.2035449260       11.2001910399       12.8032798811
  H        26.2452295526       13.0932488954       14.0660068131
  H        27.2426845418       11.6419725204        9.2373642966
  H        33.3112305246       14.2301852079       14.4633857717
  H        33.4096563261       14.4123312276        1.6058285679
  H        32.1441403745       18.5344403789       13.2481881059
  H        30.2132885554       14.1860592340        0.0837141674
  H        16.1189871283        2.9633859166        4.1355124431
  H        14.9539320479        4.8204952449        5.3282627054
  H        17.3653813672        7.6860714061        3.2142129066
  H        18.5140067388        5.8185161784        2.0143986898
  H        16.7537838198        5.7396721433        6.7767032581
  H        44.8280656712       32.1402360721        3.9823160103
  H        45.9372690619       30.3413026629        5.3116942740
  H        43.6826682034       27.3781493829        3.1573180289
  H        42.5999612815       29.1899803297        1.8147466698
  H        44.2303193884       29.4367582084        6.7740305466
  H        14.8513818319        8.5465415906        3.3684531983
  H        44.8996702111       32.2340863957       11.9264196083
  H        46.0244999773       30.4130204031       10.6469199537
  H        43.7640385942       27.4840711910       12.8407571766
  H        42.6462372273       29.3177145624       14.1198103293
  H        44.2684642298       29.4705317729        9.2130703707
  H        35.0836538979       26.6138073091       12.6278836627
  H        36.6050610369       35.1340545608        0.1857676514
  H        16.1441980586        3.0129312397       11.8983228540
  H        14.9746644061        4.8562791106       10.6826028323
  H        17.3948976725        7.7473343048       12.7512559573
  H        18.5419586454        5.8934474535       13.9788562261
  H        16.7647858883        5.7555369350        9.2141940467
  H        36.2784282199       34.4825969808       14.2680170219
  H        36.3808408210       34.2092430915        1.5048048019
  H        40.5804716599       33.2026062898       13.1484545511
  H        17.4708708071        1.9477828488       15.9689833107
  H        28.8879681549       19.2020533750        4.4615439571
  H        29.9184066140       19.7014214012       11.6139895594
  H        31.9049937254       15.7488559779       11.6124304040
  H        31.3063869571       15.6015388306        4.5389888037
  H        28.1928845233       17.7618552013        6.8266084049
  H        29.6585418787       15.1825010440        6.6262703220
  H        31.6941475829       20.0158937453        9.7078209002
  H        33.1805710477       16.8011714526        9.5936148367
  H        28.9971714252       16.6938377281        9.2535263474
  H        18.8532559291        0.8690366617        4.3402244467
  H        40.5278957015       35.2290978917       11.9469301131
  H        42.3240003295       34.4187397488       11.5855263275
  H        22.0877292111        0.6917776620        4.3568848821
  H        11.5968841624       18.7127667322        4.3875923705
  H        52.2649899397       18.4309606252       11.6722783375
  H        49.2546542908       16.4771611021       11.5797733633
  H        10.1496319345       15.7983060717        4.2982346349
  H        50.8500636009       17.6925204898       11.9491128543
  H        10.0458309622       17.3945565385        4.0570396797
  H        20.2144976296        0.0021971931        4.0471282518
  H        39.1836078402       36.1244996764       11.6814453582
  H        32.3113932017       18.5047907955        6.8619284777
 Ni        30.9408076467       17.7251255355       10.9058759883
 Ni        31.2425328184       16.4222805981        7.9972309936
 Ni        30.0162386074       18.9359889355        8.1579073212
 Ni        30.2287021882       17.4975392358        5.2515876121
  O        10.6499614731       14.3650567757       13.4806576326
  O        12.6131905654       14.6574677964       14.5787729104
  O        49.1481928629       16.8458464267       15.9845897934
  O        50.3502942016       20.9359574204       13.6429314970
  O        48.3485568048       20.5934222291       14.6607619990
  O        11.0517683839       17.0538360732       14.4955883604
  O        50.3210218862       20.8817314972        2.4119721181
  O        48.3467991051       20.5868541485        1.3322466187
  O        49.5438607548       18.2484430400        2.0733462343
  O        12.3593137481       18.6246823289        0.0047943883
  O        48.6932453103       14.1485659754       14.7461705171
  O         8.2098995882       14.2103331498        1.3276521720
  O        10.7353935187       14.5066995647        2.6694740966
  O        12.5718497866       14.5827783071        1.3336155473
  O        22.8447114814        2.0433407917       13.4818835672
  O        21.6060176237        3.5927269922       14.5839743455
  O        42.0582309887       34.1373814564       15.9738370468
  O        37.9818636592       33.1376758989       13.5673987220
  O        39.2184836133       31.5763817302       14.6619162349
  O        20.3084232700        1.0395981082       14.4969553769
  O        38.0248095333       33.1859442481        2.4202655145
  O        39.2193751909       31.5839604753        1.3313201519
  O        40.6522828869       33.7693700362        2.0653191690
  O        18.2555794038        1.3766418313        0.0018542523
  O        44.6222115944       35.1005488902       14.7536244116
  O        24.2054056642        0.0000028573        1.3258980088
  O        22.7528891681        2.0572834361        2.5887217997
  O        21.6244981545        3.5961055949        1.3477746871
  O        27.4907522247       18.7508837265       13.4945481197
  O        26.7627440184       16.9282947482       14.6485288583
  O        30.6375243487       19.3561511910        0.0806573798
  O        33.5928271882       16.2739132693       13.6655543228
  O        34.2749315062       18.1694992379       14.7325948865
  O        29.5731992784       17.0584018680       14.5708427162
  O        33.6244591565       16.3289771070        2.4156763533
  O        34.3055219178       18.2486966016        1.4111608584
  O        31.6518252180       18.3162114433        2.1653073464
  O        30.3182460329       15.1511926742        0.0953978987
  O        28.5542341546       21.0302478627       14.8967699148
  O        28.5125272422       20.9548631012        1.4173898045
  O        27.4585083071       18.6753019200        2.6699962288
  O        26.6919274131       16.9272674768        1.4224411937
  O        13.1485336766       18.6929375428        2.5924913631
  O        13.9192155929       16.9162106519        1.4100719084
  O        50.5965825323       19.3503332823        0.0255443110
  O        47.6837363149       16.3269602825        2.4222730572
  O        46.9529029542       18.1761365995        1.3288686434
  O        11.0699122864       17.0154889328        1.4947490269
  O        47.6758389860       16.3355969681       13.6477975700
  O        46.9287846565       18.2358538154       14.6603721769
  O        49.5689410725       18.3176922039       13.9771495588
  O        10.3187354371       15.1001096491        0.0021494655
  O        52.6707795114       21.0279116988        1.2469256695
  O        12.1468554304       20.8912523230       14.6681400021
  O        13.1080986033       18.6136508182       13.3205621652
  O        13.9571216280       16.9870171222       14.6603922096
  O        29.9931168661       14.4418748724        2.7380934358
  O        28.0884446710       14.6529900761        1.5015846110
  O        32.1421319835       16.8500466506        0.0957434504
  O        30.9654661292       20.9544701809        2.4140577680
  O        32.9456103195       20.6044786130        1.3434354710
  O        29.5677221826       17.0730819176        1.5859652079
  O        30.8731816687       20.9495469011       13.6598538470
  O        32.8777015367       20.5860979123       14.6642880382
  O        31.6889434327       18.2554179772       14.0578705448
  O        28.2583986841       18.6326059255        0.0856399909
  O        32.4938074417       14.2122064471        1.3368350983
  O        32.4074561539       14.2112037064       14.8203719299
  O        29.9187681398       14.4348952544       13.4873539526
  O        28.0371690375       14.5868746456       14.7468198995
  O        17.8892696800        1.9666523717        2.6678930640
  O        18.9562894970        3.5271726358        1.4130626487
  O        39.1686045819       34.1388731019        0.0022869663
  O        43.2802194643       33.0589777709        2.3367921054
  O        42.0345477376       31.5064823919        1.2467293653
  O        20.3176937933        1.0368013819        1.4852081011
  O        43.2760882133       33.1826137519       13.5698212763
  O        42.0052828933       31.5841450273       14.5778690126
  O        40.5790732918       33.7750883170       13.9307156360
  O        22.3673041810        1.3846729729        0.0029432309
  O        36.6727808153       35.0998334666        1.2383883919
  O        16.4455645266        0.0642815228       14.6631902481
  O        17.9364913427        2.0433729139       13.3212869789
  O        18.9191399069        3.5931402429       14.6607883466
  O        29.8675511319       18.8925820884       12.1580807552
  O        29.7743477762       19.0519048401        4.0754482685
  O        31.3480269917       16.3288467117       12.1647751132
  O        31.3785459763       16.4187243138        4.0046819290
  O        32.2415801186       16.5639194856        9.6469193350
  O        29.8184561166       17.2165518073        9.2397548456
  O        30.4176510304       15.7540906785        6.4118257936
  O        31.4299356743       18.0982685233        6.9079382156
  O        30.8850054097       19.4924478531        9.8152992499
  O        28.8857500884       18.3942063009        6.5788258758
  O        39.4567702073       35.2438190041       11.9968404170
  O        19.1412095828        0.0045142482        3.9956590370
  O        41.9695735959       35.1726591440       12.0820681265
  O        21.6911883145       -0.0694077246        3.9009958013
  O        51.3651332793       18.6142856795       12.0002456241
  O        10.7510758465       18.7471542737        3.9100623955
  O        50.0792949033       16.4127379936       12.0866676604
  O         9.5239964005       16.4831791649        3.9963080672
 Zr         9.2971067491       16.0527963285       14.1774303220
 Zr        49.8365540930       16.0066645223        1.7513656153
 Zr        22.0732534542        0.0296210652       14.1839514505
 Zr        42.4609158668       35.1531438837        1.8059797267
 Zr        29.5900478765       19.0846953713       14.2697222031
 Zr        29.5726776306       19.1684812903        1.8755633968
 Zr        11.0384785177       19.0518166591        1.8328864176
 Zr        11.0444193362       19.1547223534       14.2458110861
 Zr        31.3533236641       16.1002121250        1.8885597839
 Zr        31.3914729226       16.0104508865       14.2988186507
 Zr        18.6010874969       -0.0012399738        1.7683831207
 Zr        18.5064289575       -0.0076570431       14.2086670658
 Zr        12.3025194998       16.3237590509       15.9851691796
 Zr        48.6172737187       18.8331840262        0.0152978233
 Zr        20.3149633842        2.4733726303       15.9852714961
 Zr        40.6436202978       32.6869639866       15.9731399353
 Zr        28.3447441123       16.3389485203        0.0840015761
 Zr        32.6194741522       18.8318526098        0.0690612861
  O        28.6351624436       14.2897614219        8.3314414972
  H        29.0421417838       13.8829666546        9.1156893266
  H        27.7551869164       13.8809674845        8.2806323489
  O        30.4139243828       20.7365515712        6.9880414970
  H        30.3051656376       20.3582922280        6.0852398257
  H        29.6975824251       21.3896072426        7.0643059982
