     581
 i =      206, E =     -4829.4270583500
  C        11.8587138568       14.0536343889       13.7364614947
  C        12.4562549214       12.8906653153       13.0180774133
  C        11.7045351638       12.1716533739       12.0765249588
  C        12.2809008069       11.1094502891       11.3841414439
  C        13.6214849189       10.7397390737       11.6118765372
  C        14.3547259481       11.4433896700       12.5852155612
  C        13.7818132134       12.5083722676       13.2767023044
  C        14.2610330973        9.6490740231       10.8384905885
  C        14.2565219457        9.6570079535        9.4167892691
  C        13.7434405170       10.7591839599        8.6628955731
  C        49.1268452682       21.2332507492       13.8745494924
  C        48.5501015814       22.4011967233       13.1474391258
  C        49.3001903133       23.0687202819       12.1666312171
  C        48.7332316875       24.1078611900       11.4334467140
  C        47.4026007826       24.5092676930       11.6619340722
  C        46.6715402448       23.8601754067       12.6752145336
  C        47.2340465695       22.8152810753       13.4045375316
  C        46.7723617379       25.5869831517       10.8646801925
  C        46.7613982882       25.5574116065        9.4429209326
  C        47.2613625167       24.4423281989        8.6994361812
  C        14.8604860728        8.5706569773        8.7035574573
  C        14.8916196684        8.5970396085       11.5151671729
  C        49.1132189162       21.2034698735        2.1504986332
  C        48.5278028250       22.3647916211        2.8777369550
  C        49.2671095206       23.0257139049        3.8704540575
  C        48.6907111719       24.0602309205        4.6019253377
  C        47.3602100568       24.4567815855        4.3638374064
  C        46.6396936364       23.8116190348        3.3405633181
  C        47.2132995515       22.7757490655        2.6087733378
  C        46.7217469203       25.5317917828        5.1547963667
  C        46.7335459482       25.5282064306        6.5764977570
  C        47.2490459921       24.4290204451        7.3328836257
  C        40.6369642347       17.1648944111        7.3267263250
  C        40.6583034303       17.1846099340        4.5179900258
  C        11.8830017948       14.0866341120        2.2906056234
  C        12.4723941236       12.9108109245        2.9949265828
  C        11.7148264538       12.1774452489        3.9208406434
  C        12.2814397027       11.0949945720        4.5892719098
  C        13.6203122279       10.7214518488        4.3575295364
  C        14.3583769818       11.4371899186        3.3969379519
  C        13.7929006504       12.5183595754        2.7242710360
  C        14.2539421290        9.6247090884        5.1279565193
  C        14.2528113819        9.6446816482        6.5497959979
  C        13.7429221077       10.7536374484        7.2968491584
  C        22.5121670307        3.2443902170       13.7476194358
  C        23.2282569426        4.3492152040       13.0471184359
  C        24.2247855665        4.0668847818       12.1011078836
  C        24.8542492356        5.1047124508       11.4185366940
  C        24.5034394656        6.4474945039       11.6620557567
  C        23.5347709405        6.7215482768       12.6447254812
  C        22.9004200920        5.6852688697       13.3254634635
  C        25.1141755572        7.5513716347       10.8857227871
  C        25.0864523105        7.5430452771        9.4640595003
  C        24.3759869063        6.5488730415        8.7189316781
  C        38.3029994468       31.9293469793       13.8439314435
  C        37.5749155116       30.8390737664       13.1347767979
  C        36.6184014019       31.1409634657       12.1534730149
  C        36.0037931023       30.1190093279       11.4353864137
  C        36.3306977136       28.7703620682       11.6775043995
  C        37.2570422736       28.4760760788       12.6956061701
  C        37.8761844717       29.4966545432       13.4121409773
  C        35.7310192345       27.6773299442       10.8803793406
  C        35.7648587605       27.6915558552        9.4591996497
  C        36.4729877581       28.6926772342        8.7223633633
  C        25.7190323076        8.6065675509        8.7428853693
  C        25.7165938900        8.6242532328       11.5551613000
  C        38.3291088389       31.9620788562        2.1614775521
  C        37.6090458191       30.8885010840        2.9035420551
  C        36.6837497932       31.1960186555        3.9126913620
  C        36.0760941072       30.1764582593        4.6426959327
  C        36.3792696888       28.8241774119        4.3867468530
  C        37.2818163593       28.5267964809        3.3473253194
  C        37.8919024944       29.5427331441        2.6188136924
  C        35.7731657335       27.7241150261        5.1706461297
  C        35.7861781423       27.7156771072        6.5925406909
  C        36.4828685222       28.7045108639        7.3558486593
  C        46.1355784397       26.6208475921        7.2866555653
  C        46.0877109408       26.5800890037        4.4787303197
  C        22.4604918059        3.2551618823        2.2624277037
  C        23.1551576021        4.3633089027        2.9858146699
  C        24.1577668442        4.0753187016        3.9253296531
  C        24.7873069182        5.1042713698        4.6214152391
  C        24.4343755129        6.4503683207        4.3996397804
  C        23.4544233652        6.7318482193        3.4291274692
  C        22.8199780281        5.7029103741        2.7338846591
  C        25.0698620020        7.5463921731        5.1726007990
  C        25.0644072956        7.5402763007        6.5952274979
  C        24.3636515515        6.5488763661        7.3523332492
  C        26.6211271731       17.8593557707       13.7798723903
  C        25.3126145524       17.9019151925       13.0528397539
  C        25.0537014274       18.9001336111       12.1003497771
  C        23.8410097040       18.9219129005       11.4134398629
  C        22.8506199743       17.9481884594       11.6573585238
  C        23.1064109517       16.9722978985       12.6386692587
  C        24.3212136853       16.9458017528       13.3231557492
  C        21.5768990456       17.9354119715       10.8937264799
  C        21.5763479491       17.9132556270        9.4713852746
  C        22.7817988822       17.7887623512        8.7106763538
  C        34.4407474298       17.1962259112       13.9176063204
  C        35.7316031546       17.1570595282       13.1670474221
  C        35.9394350404       16.1951912510       12.1663334979
  C        37.1186670162       16.1927175741       11.4264155643
  C        38.1230958753       17.1492747857       11.6710031240
  C        37.9177698449       18.0922567077       12.6955140835
  C        36.7344907488       18.1015430137       13.4303706690
  C        39.3788826827       17.1624906665       10.8879700338
  C        39.3769290458       17.1843148897        9.4668881775
  C        38.1714444461       17.3144031228        8.7077683542
  C        20.3298954810       17.9315506974        8.7627616334
  C        20.3520950072       17.9394550771       11.5760100532
  C        34.4799618682       17.2460968984        2.1832617533
  C        35.7840853139       17.1770101257        2.9058746895
  C        35.9969940860       16.2016510882        3.8911036823
  C        37.1817667231       16.1906912598        4.6215857084
  C        38.1813557302       17.1538459044        4.3843450742
  C        37.9751189580       18.1036105723        3.3668189853
  C        36.7876043189       18.1203217038        2.6402357435
  C        39.4268166995       17.1773643171        5.1810278071
  C        39.4013421319       17.1925713807        6.6016511971
  C        38.1828807708       17.3163169415        7.3412315639
  C        35.1550031503       26.6367711661        7.2962817221
  C        35.1809103038       26.6548616693        4.4872183066
  C        26.5711829374       17.8225452107        2.3335994875
  C        25.2555897692       17.8729657491        3.0388281086
  C        24.9912109074       18.8788126151        3.9803374926
  C        23.7730735494       18.9055209673        4.6535407861
  C        22.7900814939       17.9261200945        4.4081867701
  C        23.0481342529       16.9456605182        3.4331860175
  C        24.2671226381       16.9170552946        2.7586552950
  C        21.5267946699       17.9075834738        5.1813429185
  C        21.5509849478       17.8978606223        6.6027456857
  C        22.7697798638       17.7816248803        7.3444220705
  C        14.0464101522       17.8288640245        2.2939528988
  C        15.3504473709       17.8861103657        3.0196397323
  C        15.6061445229       18.8890800004        3.9677473498
  C        16.8147668073       18.9101081146        4.6611612048
  C        17.8018512590       17.9311449385        4.4284063694
  C        17.5509032937       16.9524962624        3.4481269733
  C        16.3417046621       16.9267736702        2.7563411457
  C        19.0707643389       17.9145184200        5.1974671107
  C        19.0695717092       17.9112434765        6.6199157328
  C        17.8626715689       17.8121322888        7.3813156757
  C        46.8072330404       17.2204876742        2.1647659008
  C        45.5201366401       17.1656039678        2.9134016685
  C        45.3140680545       16.1943638991        3.9050319706
  C        44.1344153828       16.1856970362        4.6441341406
  C        43.1328587445       17.1482472601        4.4119379480
  C        43.3363696521       18.0991106906        3.3940317525
  C        44.5166223603       18.1120124844        2.6564228188
  C        41.8805491597       17.1683387540        5.1993744562
  C        41.8848399061       17.1719647838        6.6207236617
  C        43.0930109248       17.2632893981        7.3810875727
  C        20.3165043605       17.9224728547        7.3279507513
  C        20.2947180602       17.8960028884        4.5149981255
  C        46.7859425199       17.2314741253       13.8850455176
  C        45.4818776445       17.1291276423       13.1720204918
  C        45.2604983833       16.1366763198       12.2054460618
  C        44.0719637914       16.1179411416       11.4799986381
  C        43.0764270121       17.0885145650       11.7046906109
  C        43.2872445107       18.0489421444       12.7113566946
  C        44.4768923830       18.0744207707       13.4314728143
  C        41.8320963999       17.1222697075       10.9062804647
  C        41.8602779993       17.1467355484        9.4858360782
  C        43.0813999722       17.2486991536        8.7474868929
  C        46.1533940350       26.6373061317        8.7211939065
  C        46.1623422390       26.6560577534       11.5308054092
  C        14.0456067443       17.8318870725       13.7038484339
  C        15.3667792843       17.9067984636       13.0137674177
  C        15.6397781134       18.9220059612       12.0848303037
  C        16.8687981536       18.9596220073       11.4300695087
  C        17.8524996937       17.9812360156       11.6785029936
  C        17.5865177729       16.9953166383       12.6460685620
  C        16.3594671203       16.9570913229       13.3042356583
  C        19.1195233045       17.9562362696       10.9091952165
  C        19.0949037211       17.9312551672        9.4877592756
  C        17.8750092849       17.8210774072        8.7473049194
  C        28.8112466661       14.0927623162        2.3967233318
  C        28.2008118003       12.9145584519        3.0822233290
  C        28.9360531615       12.1601542396        4.0078950826
  C        28.3432330088       11.0794986391        4.6564213603
  C        27.0008036163       10.7323416415        4.4043828017
  C        26.2860150244       11.4682271829        3.4425081743
  C        26.8778048540       12.5473915102        2.7907487107
  C        26.3357333377        9.6507557580        5.1667492391
  C        26.3327905505        9.6727190681        6.5875078110
  C        26.8620839820       10.7746343749        7.3323703015
  C        32.1787578376       21.2423137738        2.1480800177
  C        32.7749513040       22.4080888599        2.8676899268
  C        32.0273815954       23.0886127344        3.8408197562
  C        32.5997655342       24.1257470155        4.5708571493
  C        33.9354372292       24.5112272025        4.3464677380
  C        34.6657524914       23.8498658771        3.3413520074
  C        34.0957732074       22.8063618984        2.6144916575
  C        34.5661927571       25.5852172341        5.1468134305
  C        34.5599429707       25.5549722439        6.5682182155
  C        34.0482491949       24.4406302557        7.3055375864
  C        25.7125064447        8.6020305895        7.3082357768
  C        25.6887174657        8.6054576918        4.4951297849
  C        32.1038992953       21.2263160534       13.8792721062
  C        32.6985247966       22.3737031344       13.1303076602
  C        31.9671622491       23.0293100500       12.1280716771
  C        32.5489570912       24.0588077619       11.3918700840
  C        33.8757300596       24.4619188925       11.6395496344
  C        34.5905073885       23.8181370588       12.6677188447
  C        34.0132947395       22.7835198456       13.3994638944
  C        34.5169022418       25.5430767988       10.8563783230
  C        34.5346466186       25.5336356630        9.4345617019
  C        34.0359815522       24.4308034424        8.6720595535
  C        40.6242712062       17.1562476263        8.7604998519
  C        40.6006225962       17.1482317070       11.5698404810
  C        28.7472176284       14.0702939255       13.8137377189
  C        28.1364337597       12.9256355387       13.0671172106
  C        28.8854518831       12.2172364836       12.1145450855
  C        28.3123972088       11.1558202475       11.4165487146
  C        26.9734478403       10.7775776735       11.6461111059
  C        26.2408324258       11.4765736798       12.6229034166
  C        26.8134360188       12.5372766807       13.3235025701
  C        26.3371451221        9.6812441092       10.8765008190
  C        26.3342359057        9.6875165810        9.4552224329
  C        26.8591985930       10.7812594636        8.6977067688
  C        18.1353673516        3.1809488777        2.3222579790
  C        17.4059961399        4.2782038244        3.0207607180
  C        16.3906704759        3.9998119819        3.9487032665
  C        15.7429808183        5.0397841106        4.6122472725
  C        16.0944876436        6.3835527684        4.3721827704
  C        17.0833732298        6.6530766991        3.4078928751
  C        17.7324250576        5.6157550236        2.7427840172
  C        15.4703042274        7.4912989229        5.1352412531
  C        15.4856565880        7.4905984765        6.5569530374
  C        16.1871751954        6.4969891470        7.3101707665
  C        42.9458969972       31.8594203071        2.0780095534
  C        43.6461949047       30.7718291240        2.8219691379
  C        44.5919123522       31.0931100414        3.8078907817
  C        45.1975988506       30.0875563285        4.5555406140
  C        44.8709991131       28.7345006947        4.3408367421
  C        43.9449846021       28.4201957764        3.3277819519
  C        43.3361821113       29.4253465873        2.5797568229
  C        45.4885901249       27.6552323658        5.1440515380
  C        45.4928384390       27.6809426804        6.5657332347
  C        44.8057743216       28.6890206709        7.3123251775
  C        14.8567809341        8.5631367271        7.2693294641
  C        14.8750103674        8.5630933939        4.4566829017
  C        42.9464670796       31.9614621760       13.8038578539
  C        43.6916804593       30.8854307210       13.0904102240
  C        44.6563825031       31.1913423056       12.1181965065
  C        45.2779137678       30.1717630703       11.4004893606
  C        44.9540295929       28.8214425287       11.6380395970
  C        44.0203959165       28.5237642919       12.6486787718
  C        43.3921174033       29.5405274954       13.3608235992
  C        45.5630886675       27.7240889961       10.8527645612
  C        45.5334199064       27.7174562257        9.4314727007
  C        44.8270901319       28.7076662811        8.6785052256
  C        35.1432061019       26.6251154911        8.7308918117
  C        35.1257335892       26.6020700812       11.5404287162
  C        18.1484668878        3.2469586633       13.7015086542
  C        17.4297558320        4.3437999014       12.9923774594
  C        16.4149063528        4.0524543502       12.0684270502
  C        15.7666081897        5.0830882347       11.3930375582
  C        16.1208939393        6.4283723125       11.6160906456
  C        17.1117597866        6.7117659288       12.5738866547
  C        17.7594530945        5.6828976576       13.2536900178
  C        15.4905083429        7.5241013629       10.8436327157
  C        15.4965991182        7.5075175256        9.4224957899
  C        16.1933131045        6.5057869382        8.6757797467
  H        10.6723746986       12.4657409356       11.8995948375
  H        11.6945737226       10.5508880349       10.6576940472
  H        15.3917833737       11.1688523153       12.7668726222
  H        14.3512862913       13.0717393046       14.0120212344
  H        13.3763310023       11.6312504325        9.1962391196
  H        50.3229666284       22.7488023146       11.9820319790
  H        49.3197761250       24.6232688206       10.6760123208
  H        45.6419505398       24.1607251551       12.8581905491
  H        46.6629437898       22.2898363943       14.1664220939
  H        47.6298724779       23.5759561215        9.2411512670
  H        14.8717767799        8.5882262966       12.6034691040
  H        50.2872439504       22.7030315446        4.0652163849
  H        49.2691582173       24.5758747277        5.3652640693
  H        45.6101959161       24.1086369140        3.1516621229
  H        46.6524031670       22.2533732884        1.8374079633
  H        47.6077828326       23.5518753024        6.8019920101
  H        40.6658057683       17.1468248460        3.4303968157
  H        48.6869447659       14.0949926763       15.7948781064
  H        10.6812810474       12.4663729588        4.0980574321
  H        11.6895959601       10.5244387405        5.3017976227
  H        15.3938717397       11.1594471836        3.2111519117
  H        14.3652542661       13.0879075079        1.9958921779
  H        13.3760536065       11.6222165576        6.7581765085
  H        47.9301975391       14.2181829015        1.7159658074
  H        47.7800526880       14.3734885209       14.4899678374
  H        49.0841655769       18.5527217549        2.8725892557
  H        10.4159490765       14.1342752344        0.0038211703
  H        24.4837543868        3.0276613488       11.9109615945
  H        25.6269435862        4.8849341154       10.6849851702
  H        23.2559822680        7.7551023419       12.8393742737
  H        22.1304265241        5.8877692793       14.0659550073
  H        23.8096124374        5.7965827245        9.2601494035
  H        36.3817626886       32.1837395537       11.9556150536
  H        35.2618197022       30.3560273225       10.6760805299
  H        37.5165081044       27.4373840235       12.8895669742
  H        38.6174716509       29.2776676519       14.1769611787
  H        37.0396924583       29.4409935701        9.2687243512
  H        25.7476484533        8.6107587598       12.6431487152
  H        36.4618727430       32.2399646887        4.1223616778
  H        35.3532406715       30.4201011489        5.4181467691
  H        37.5273836245       27.4867855228        3.1428866711
  H        38.6115395676       29.3181816055        1.8353653395
  H        37.0582139893       29.4614314234        6.8306045093
  H        46.1090136378       26.5873499717        3.3906933777
  H        44.6681662797       35.1160682757       15.8088275674
  H        24.4343408689        3.0366075444        4.0913562365
  H        25.5685358412        4.8744063158        5.3428157673
  H        23.1707050972        7.7668268148        3.2493340397
  H        22.0475799715        5.9166843702        1.9986902710
  H        23.7870840988        5.7970508372        6.8212012276
  H        44.9535578685       34.3901077128        1.7000434986
  H        44.9015431197       34.2067356223       14.4854085274
  H        40.6657326241       33.2087680916        2.8580637136
  H        23.1506899217        1.9573565626        0.0102202553
  H        25.8170323640       19.6544157318       11.9204152385
  H        23.6423973791       19.7039270900       10.6833800844
  H        22.3533809308       16.2120272895       12.8362960757
  H        24.5296289548       16.1798595176       14.0666700888
  H        23.7214971729       17.6677624066        9.2417737388
  H        35.1616024667       15.4580418669       11.9810878545
  H        37.2803631388       15.4388178313       10.6589719457
  H        38.6857987415       18.8387548348       12.8873903325
  H        36.5577982376       18.8431753575       14.2060335200
  H        37.2329341247       17.4417026228        9.2396036750
  H        20.3592149036       17.9804889086       12.6638337390
  H        35.2142097485       15.4704672042        4.0793136775
  H        37.3476842006       15.4317135220        5.3830375696
  H        38.7418084543       18.8526972914        3.1799195346
  H        36.6040738838       18.8710510021        1.8751583046
  H        37.2531387700       17.4437082810        6.7942517639
  H        35.1510960761       26.6820619854        3.3996138249
  H        28.5032810260       21.0740896957       15.9645069748
  H        25.7524782764       19.6328496664        4.1664403515
  H        23.5675580801       19.6899350531        5.3787673593
  H        22.2967930813       16.1833012525        3.2375772964
  H        24.4833468420       16.1487769486        2.0200820025
  H        23.7005538916       17.6559399698        6.7991761311
  H        29.0159547195       21.7132057792        1.7588606824
  H        29.1767136504       21.7289485443       14.6244857779
  H        32.1290047929       18.5500204216        2.9776279477
  H        27.3698808565       19.0233420315        0.0887512145
  H        14.8472297509       19.6476598321        4.1458719210
  H        17.0094210333       19.6940888085        5.3898719946
  H        18.3027925796       16.1889626869        3.2593674102
  H        16.1363714790       16.1579772202        2.0152266610
  H        16.9201364475       17.6963493908        6.8541512791
  H        46.0950453035       15.4603530248        4.0891123642
  H        43.9731829763       15.4252417066        5.4050103299
  H        42.5700034623       18.8496282109        3.2119651201
  H        44.6919762777       18.8600029375        1.8868643112
  H        44.0356514897       17.3758112489        6.8531081753
  H        20.2885406610       17.9262820182        3.4268811332
  H        46.0355571249       15.3955905033       12.0237240775
  H        43.9024086646       15.3490095261       10.7294262120
  H        42.5226654642       18.8017643576       12.8913948790
  H        44.6625639489       18.8356449097       14.1851177205
  H        44.0151476902       17.3488928728        9.2931760369
  H        46.1991096158       26.6825235494       12.6182565311
  H        52.7412002772       21.0626362300        0.1997910630
  H        14.8788878766       19.6752355050       11.8925674177
  H        17.0795585489       19.7497309756       10.7125580503
  H        18.3375963059       16.2338215644       12.8458323981
  H        16.1387070686       16.1829262738       14.0350668640
  H        16.9417318108       17.7122060951        9.2915649019
  H        52.3224505978       21.6733208149       14.2892082507
  H        52.0131925069       21.7020506131        1.5007461737
  H        49.0675418101       18.6077878163       13.1990741678
  H        13.2477971908       19.0163026562       15.9722518704
  H        29.9697030551       12.4360052226        4.2044772706
  H        28.9156190154       10.4917300239        5.3709117839
  H        25.2484195877       11.2094392693        3.2415709732
  H        26.3259196535       13.1366258704        2.0624036830
  H        27.2523192256       11.6293580621        6.7871575856
  H        30.9997068240       22.7802155147        4.0171720698
  H        32.0155960051       24.6521440323        5.3224805698
  H        35.6995805233       24.1387605713        3.1632284977
  H        34.6644219122       22.2692216051        1.8588068457
  H        33.6864635970       23.5741930239        6.7592189883
  H        25.7125728156        8.5884168928        3.4069571654
  H        30.9453654093       22.7125498245       11.9322222302
  H        31.9746526578       24.5690378637       10.6216890520
  H        35.6179436746       24.1178831770       12.8637388405
  H        34.5692645178       22.2642938158       14.1767029539
  H        33.6655316810       23.5564403337        9.1994664970
  H        40.5913342052       17.1025180501       12.6571704080
  H        32.5104551210       14.1459761585        0.2605594370
  H        29.9218159140       12.5068114974       11.9516992790
  H        28.9028884939       10.5957735961       10.6941757058
  H        25.2051641963       11.1973390550       12.8059777095
  H        26.2466270446       13.0903161235       14.0689933881
  H        27.2437694501       11.6410104347        9.2389328413
  H        33.3107881561       14.2289542088       14.4627285062
  H        33.4097236256       14.4104469858        1.6059335360
  H        32.1431608461       18.5320338926       13.2459659233
  H        30.2147569947       14.1870406790        0.0831116214
  H        16.1188547084        2.9632949923        4.1353973513
  H        14.9537542591        4.8203688300        5.3281438836
  H        17.3653223380        7.6859929199        3.2142902670
  H        18.5139935730        5.8184104795        2.0144354406
  H        16.7536325147        5.7395627316        6.7766941338
  H        44.8283881189       32.1401592723        3.9819902520
  H        45.9375804572       30.3412339852        5.3113956003
  H        43.6820606147       27.3781645596        3.1577979539
  H        42.5994016168       29.1899985768        1.8152602757
  H        44.2303763709       29.4367537493        6.7740271086
  H        14.8511153757        8.5462715079        3.3684657264
  H        44.9000578631       32.2340071342       11.9268389326
  H        46.0248980413       30.4129409048       10.6473146659
  H        43.7633034925       27.4840494776       12.8401289383
  H        42.6455231854       29.3176818807       14.1191501379
  H        44.2685285872       29.4705170065        9.2130782981
  H        35.0810341925       26.6152140694       12.6277979464
  H        36.6049308794       35.1339661807        0.1858045182
  H        16.1440769773        3.0128531720       11.8984441130
  H        14.9745195515        4.8561965492       10.6827034717
  H        17.3947775633        7.7472914878       12.7512304376
  H        18.5418986345        5.8933721213       13.9789116369
  H        16.7646265961        5.7554475617        9.2142088808
  H        36.2781516487       34.4827234164       14.2680334683
  H        36.3803155152       34.2094537306        1.5050093775
  H        40.5801268201       33.2022973844       13.1486146339
  H        17.4707614734        1.9474869008       15.9689607906
  H        28.8646746753       19.1585483974        4.4290291391
  H        29.9509254282       19.7169371438       11.6269679000
  H        31.9184081757       15.7766232484       11.5998990076
  H        31.3005067752       15.6035707040        4.5393684572
  H        28.3690807494       17.4695509774        6.8540710406
  H        29.6658921996       15.1458222430        6.5733714412
  H        31.7552284920       19.9076020022        9.6701942434
  H        33.1629812574       16.8239327570        9.5024620521
  H        28.9427453440       16.6875789378        9.2849487863
  H        18.8530429097        0.8689396748        4.3402772386
  H        40.5278310686       35.2291417118       11.9469931521
  H        42.3235625071       34.4183339891       11.5858007694
  H        22.0878100728        0.6917284345        4.3568242556
  H        11.5968074080       18.7129361147        4.3877048018
  H        52.2648830441       18.4309679053       11.6721407092
  H        49.2546379697       16.4771805086       11.5797837073
  H        10.1495154498       15.7982698885        4.2983009413
  H        50.8499424646       17.6924893785       11.9491457038
  H        10.0457803552       17.3944928177        4.0570833885
  H        20.2142248201        0.0021611188        4.0471747325
  H        39.1834294069       36.1243750902       11.6813245686
  H        32.3126474401       18.4709899522        6.8625443435
 Ni        30.9018027958       17.7414736362       10.9048418866
 Ni        31.1984149608       16.4015812962        7.9968291720
 Ni        29.9719006601       18.9633829678        8.1575713068
 Ni        30.2688473352       17.5202457559        5.2509981326
  O        10.6499502519       14.3650559268       13.4806389754
  O        12.6132106239       14.6574852938       14.5787902186
  O        49.1481784644       16.8459099422       15.9845935799
  O        50.3502924807       20.9358860066       13.6429507508
  O        48.3485991851       20.5933917655       14.6607923058
  O        11.0516832696       17.0538661857       14.4955472588
  O        50.3210495217       20.8817005572        2.4119571828
  O        48.3468070205       20.5868170091        1.3322586017
  O        49.5438533244       18.2484515668        2.0733820868
  O        12.3592904673       18.6246582398        0.0048161029
  O        48.6932717179       14.1485605760       14.7461560839
  O         8.2098857024       14.2103430902        1.3276071467
  O        10.7354116041       14.5066864012        2.6694877727
  O        12.5718374774       14.5828064275        1.3335836726
  O        22.8447247994        2.0433072781       13.4818682792
  O        21.6060051235        3.5927599817       14.5840142478
  O        42.0581416352       34.1373001711       15.9738471640
  O        37.9819142359       33.1376981025       13.5673987674
  O        39.2184456450       31.5764015728       14.6618904033
  O        20.3083810416        1.0395167078       14.4969056957
  O        38.0248136575       33.1859263545        2.4202303415
  O        39.2193778204       31.5840116768        1.3313281957
  O        40.6522457226       33.7693428695        2.0653668493
  O        18.2555828059        1.3764975999        0.0018709797
  O        44.6222058597       35.1005372188       14.7536223617
  O        24.2053661516        0.0000124619        1.3259246897
  O        22.7529407652        2.0574607782        2.5888136108
  O        21.6244598765        3.5961721356        1.3477214290
  O        27.4904302887       18.7510366810       13.4940971561
  O        26.7623820711       16.9283163120       14.6481919201
  O        30.6384567027       19.3567101269        0.0804030177
  O        33.5925780403       16.2739512960       13.6651693485
  O        34.2752459713       18.1691497866       14.7323158856
  O        29.5733003860       17.0590395504       14.5702504200
  O        33.6244173016       16.3290077236        2.4153853815
  O        34.3057195847       18.2486166243        1.4110714105
  O        31.6526410611       18.3163073734        2.1647435257
  O        30.3190163094       15.1522648440        0.0944414119
  O        28.5541206458       21.0304260936       14.8967573959
  O        28.5124373599       20.9547851378        1.4171876087
  O        27.4598561965       18.6753245334        2.6704225500
  O        26.6920824286       16.9276513221        1.4227441546
  O        13.1486282875       18.6930241356        2.5925330500
  O        13.9193698228       16.9162390060        1.4101765640
  O        50.5964419643       19.3503040530        0.0255497623
  O        47.6838441644       16.3269404112        2.4222525235
  O        46.9528774675       18.1760951853        1.3289214854
  O        11.0698434012       17.0154999610        1.4947680300
  O        47.6758904201       16.3355921767       13.6478428000
  O        46.9288325960       18.2358348994       14.6603679864
  O        49.5689221359       18.3177219329       13.9771283927
  O        10.3187096504       15.1001202071        0.0021519550
  O        52.6707810162       21.0279215685        1.2469278364
  O        12.1468551903       20.8912233143       14.6681159366
  O        13.1082183006       18.6136873638       13.3205061951
  O        13.9572502191       16.9870341550       14.6603194357
  O        29.9934231367       14.4423025218        2.7382405950
  O        28.0886565742       14.6530761986        1.5015360458
  O        32.1422788647       16.8504189645        0.0942827560
  O        30.9654947799       20.9538239279        2.4141492301
  O        32.9455021043       20.6042716018        1.3432871867
  O        29.5681474890       17.0734609716        1.5859288118
  O        30.8730395845       20.9489493053       13.6601729018
  O        32.8775826382       20.5860805949       14.6643318112
  O        31.6892041440       18.2558291561       14.0574325245
  O        28.2587342319       18.6336363040        0.0855367890
  O        32.4936796880       14.2122216303        1.3362421725
  O        32.4072145078       14.2116888567       14.8203376840
  O        29.9186355821       14.4351656026       13.4870610496
  O        28.0371683340       14.5871027861       14.7469266579
  O        17.8892595563        1.9666349284        2.6679083166
  O        18.9562639122        3.5271525209        1.4130672458
  O        39.1687029392       34.1388704178        0.0022752919
  O        43.2802550067       33.0589565146        2.3367783514
  O        42.0345544223       31.5064980173        1.2467055472
  O        20.3176349460        1.0366843981        1.4852722448
  O        43.2760816043       33.1825752781       13.5697922845
  O        42.0052717647       31.5841533922       14.5778842439
  O        40.5790609060       33.7750410474       13.9307009169
  O        22.3672558527        1.3845914617        0.0029476950
  O        36.6727862758       35.0998326778        1.2384027063
  O        16.4455544457        0.0642585981       14.6631966828
  O        17.9364804875        2.0433987651       13.3212640126
  O        18.9191069902        3.5931317684       14.6608020150
  O        29.8624726261       18.9017893044       12.1594057870
  O        29.7713653985       19.0528018551        4.0770568048
  O        31.3467544288       16.3352173278       12.1592554405
  O        31.3818283394       16.4192086291        4.0039264109
  O        32.2329868557       16.5643475809        9.5906267586
  O        29.7549069815       17.2213249753        9.2382897933
  O        30.4086894847       15.7518834407        6.4030777475
  O        31.4193952134       18.0931271030        6.9124315425
  O        30.8920862133       19.4922029873        9.8217107638
  O        28.7711180519       18.3093700416        6.5722994491
  O        39.4567662045       35.2438081855       11.9968512027
  O        19.1410608264        0.0044610478        3.9956821044
  O        41.9696369536       35.1726638992       12.0820898368
  O        21.6912137938       -0.0694205857        3.9009547166
  O        51.3651016495       18.6142540924       12.0002758670
  O        10.7510834701       18.7471852188        3.9100255149
  O        50.0792947021       16.4128072284       12.0866798173
  O         9.5239382450       16.4831684254        3.9963079797
 Zr         9.2968384472       16.0527745147       14.1774128143
 Zr        49.8363404170       16.0066360602        1.7513598452
 Zr        22.0730640664        0.0292531196       14.1840634009
 Zr        42.4607264558       35.1528360773        1.8059221547
 Zr        29.5915255120       19.0871694660       14.2705828584
 Zr        29.5757569199       19.1709461015        1.8720521046
 Zr        11.0382144825       19.0519345857        1.8328152312
 Zr        11.0441198099       19.1548266811       14.2459241949
 Zr        31.3552932457       16.1010632671        1.8848809499
 Zr        31.3920025872       16.0112820996       14.2932774157
 Zr        18.6008243722       -0.0017348450        1.7684280611
 Zr        18.5061672360       -0.0080892598       14.2085749256
 Zr        12.3020952838       16.3237467036       15.9851509417
 Zr        48.6169120097       18.8332676519        0.0152973732
 Zr        20.3147318521        2.4728423294       15.9853152198
 Zr        40.6432200286       32.6864958415       15.9731561201
 Zr        28.3466377792       16.3394642338        0.0842499832
 Zr        32.6219473856       18.8328845047        0.0674038775
  O        28.6342994582       14.2892758108        8.3311331140
  H        29.0685001055       13.9146535138        9.1169332735
  H        27.7827104407       13.8232837787        8.2861305667
  O        27.8819367226       20.1502638074        8.1677631988
  H        27.8467080484       19.4583091889        7.4398572284
  H        27.2432735191       19.8863975043        8.8497630198
  O        30.4109038576       20.7357426819        6.9893011415
  H        30.3396335631       20.4195754196        6.0614180833
  H        29.6085979330       21.2701081636        7.1403457030
