     575
 i =      247, E =     -4794.9344407094
  C        11.8589200750       14.0534919020       13.7364244610
  C        12.4564498025       12.8906861019       13.0180841360
  C        11.7047351518       12.1715854530       12.0765601404
  C        12.2811703349       11.1094054676       11.3842515153
  C        13.6218360777       10.7398333126       11.6118519682
  C        14.3550719824       11.4436431295       12.5850840708
  C        13.7821343060       12.5086195020       13.2765468437
  C        14.2613152001        9.6491247882       10.8384913459
  C        14.2565449021        9.6570247140        9.4168035885
  C        13.7434803221       10.7592189974        8.6629327848
  C        49.1270017186       21.2332139032       13.8745505883
  C        48.5502884938       22.4012445592       13.1475453648
  C        49.3002232738       23.0683738443       12.1663485101
  C        48.7332954058       24.1075281151       11.4331553379
  C        47.4028560251       24.5094018779       11.6619786091
  C        46.6720490380       23.8607852523       12.6757715727
  C        47.2344945211       22.8158759123       13.4051151511
  C        46.7725202587       25.5870203214       10.8646830495
  C        46.7614373425       25.5573466665        9.4429232258
  C        47.2614256722       24.4422839188        8.6994170913
  C        14.8603495230        8.5706220646        8.7035385681
  C        14.8920588552        8.5971679861       11.5151480643
  C        49.1133851420       21.2035043176        2.1504862653
  C        48.5280790619       22.3649422505        2.8775805987
  C        49.2671648534       23.0252991322        3.8708350491
  C        48.6908848164       24.0599019197        4.6022695044
  C        47.3606305710       24.4570295531        4.3637298093
  C        46.6404206702       23.8125609743        3.3397760038
  C        47.2139300249       22.7766238104        2.6080168430
  C        46.7221397375       25.5319472196        5.1547646536
  C        46.7337024931       25.5281897339        6.5764698085
  C        47.2491543418       24.4289895513        7.3328651265
  C        40.6340174501       17.1340417373        7.3333498556
  C        40.6517929201       17.1750122075        4.5244514610
  C        11.8831154990       14.0865709592        2.2906879367
  C        12.4725165643       12.9109658267        2.9950333252
  C        11.7150259490       12.1776535568        3.9210859608
  C        12.2816940206       11.0952273820        4.5894508048
  C        13.6205604059       10.7216232713        4.3576327111
  C        14.3585459910       11.4373766108        3.3969857374
  C        13.7930469619       12.5185298250        2.7243335495
  C        14.2541125379        9.6248135359        5.1279821024
  C        14.2527300355        9.6447193576        6.5498129080
  C        13.7430021262       10.7537326716        7.2968909034
  C        22.5120629741        3.2440797757       13.7483747301
  C        23.2275628732        4.3486154951       13.0494141209
  C        24.2233345024        4.0672318183       12.1023735671
  C        24.8512790132        5.1060261409       11.4202990399
  C        24.4990933992        6.4480971273       11.6653483597
  C        23.5317705616        6.7210004260       12.6496089244
  C        22.8990416566        5.6840127758       13.3300152931
  C        25.1052736772        7.5538599903       10.8894927911
  C        25.0745345560        7.5477747663        9.4681776355
  C        24.3694852790        6.5500481233        8.7226457305
  C        38.3034684574       31.9296862158       13.8437743678
  C        37.5760633616       30.8392464496       13.1336822542
  C        36.6193970814       31.1411053644       12.1525997203
  C        36.0053880235       30.1191940702       11.4338760611
  C        36.3331651659       28.7707209415       11.6754257351
  C        37.2599585053       28.4763653544       12.6930434337
  C        37.8783962105       29.4969503529       13.4101739216
  C        35.7338213005       27.6774953013       10.8783311638
  C        35.7676601360       27.6912994880        9.4571397032
  C        36.4746600403       28.6929581608        8.7198520414
  C        25.6972133979        8.6176331243        8.7480901080
  C        25.7055049394        8.6269590016       11.5601329678
  C        38.3290933911       31.9622301595        2.1610510498
  C        37.6087226530       30.8879965203        2.9024076046
  C        36.6821903789       31.1946486154        3.9105900190
  C        36.0748317195       30.1744681328        4.6400493844
  C        36.3798479013       28.8225965405        4.3844011013
  C        37.2833884140       28.5259477690        3.3457199139
  C        37.8930359004       29.5425545763        2.6177681777
  C        35.7752276248       27.7219339017        5.1686227503
  C        35.7887981871       27.7141341220        6.5904815571
  C        36.4843028666       28.7042070076        7.3533264666
  C        46.1355651716       26.6207486604        7.2866168939
  C        46.0881992363       26.5803308655        4.4787263118
  C        22.4602057999        3.2559733114        2.2630479420
  C        23.1525160599        4.3650202050        2.9866069202
  C        24.1536967068        4.0797914064        3.9286317586
  C        24.7799438818        5.1105289862        4.6251441673
  C        24.4253578928        6.4561755560        4.4021685909
  C        23.4472878265        6.7346341288        3.4286500318
  C        22.8162586718        5.7041434124        2.7327103970
  C        25.0553920783        7.5545076703        5.1764997073
  C        25.0493057475        7.5476578426        6.5992916314
  C        24.3557474632        6.5509510275        7.3560355069
  C        26.6204261778       17.8602271480       13.7780290423
  C        25.3112724532       17.9067395478       13.0547081617
  C        25.0573770223       18.8966202126       12.0924636630
  C        23.8443358107       18.9173295838       11.4063140918
  C        22.8494270523       17.9510272741       11.6598751925
  C        23.1002845148       16.9838642685       12.6513939573
  C        24.3150478424       16.9580223274       13.3353283628
  C        21.5764786432       17.9351843772       10.8952100771
  C        21.5757157735       17.9077765981        9.4727337994
  C        22.7808276716       17.7797947187        8.7121569000
  C        34.4393490466       17.1926896707       13.9185494651
  C        35.7336688337       17.1425233085       13.1748143725
  C        35.9398443549       16.1712002094       12.1832031058
  C        37.1200234513       16.1579970800       11.4457398280
  C        38.1261809028       17.1140844305       11.6824911876
  C        37.9234866573       18.0658164969       12.6994762437
  C        36.7394968023       18.0850688019       13.4329673045
  C        39.3798133631       17.1226238966       10.8965243644
  C        39.3749326618       17.1384623870        9.4753653222
  C        38.1663703271       17.2543347056        8.7187056949
  C        20.3291132159       17.9247067924        8.7641738924
  C        20.3514973366       17.9410556706       11.5771924409
  C        34.4745703984       17.2496391481        2.1854038978
  C        35.7742264936       17.1826611970        2.9196839216
  C        35.9965699174       16.1845186935        3.8811704702
  C        37.1815765396       16.1658212019        4.6120597544
  C        38.1730980731       17.1441994861        4.3984650160
  C        37.9558101157       18.1177190882        3.4072843130
  C        36.7681843739       18.1413185908        2.6800328959
  C        39.4217852471       17.1579794077        5.1904500665
  C        39.3973213571       17.1585553851        6.6105848364
  C        38.1788824001       17.2637485163        7.3524992272
  C        35.1592639645       26.6346775516        7.2946222498
  C        35.1838660916       26.6518583810        4.4856244117
  C        26.5677331535       17.8242540706        2.3284833295
  C        25.2519292777       17.8679796684        3.0351258596
  C        24.9851777354       18.8745420360        3.9753883836
  C        23.7684685599       18.8969590121        4.6515779692
  C        22.7887122278       17.9134314959        4.4092535541
  C        23.0491939260       16.9322298489        3.4357749699
  C        24.2673070042       16.9071828795        2.7590777184
  C        21.5254705579       17.8940295464        5.1827137461
  C        21.5496219374       17.8854987585        6.6041140978
  C        22.7681440471       17.7692832387        7.3459161598
  C        14.0463050237       17.8282493007        2.2945188700
  C        15.3496756363       17.8833564034        3.0207364123
  C        15.6065353688       18.8848854977        3.9700870790
  C        16.8150425523       18.9033282889        4.6637027071
  C        17.8007626472       17.9230675586        4.4302280649
  C        17.5486215291       16.9459000821        3.4487512031
  C        16.3396393394       16.9227703672        2.7566956962
  C        19.0696195630       17.9041305608        5.1990684970
  C        19.0684319058       17.9018098370        6.6214646343
  C        17.8615518626       17.8041554137        7.3830514147
  C        46.8061357736       17.2206764203        2.1653432248
  C        45.5179229375       17.1647349450        2.9148964980
  C        45.3116712042       16.1913933462        3.9045657640
  C        44.1317429788       16.1798846576        4.6436808121
  C        43.1285223136       17.1417279857        4.4145139042
  C        43.3324449297       18.0953302603        3.3990175941
  C        44.5131219807       18.1108077762        2.6611335376
  C        41.8758493544       17.1563029458        5.2033630446
  C        41.8809646511       17.1518892375        6.6251774648
  C        43.0894386241       17.2464293200        7.3846629048
  C        20.3153486995       17.9125343841        7.3294104642
  C        20.2934699525       17.8833732111        4.5163478306
  C        46.7865530514       17.2304016045       13.8863126944
  C        45.4823677063       17.1235555043       13.1740683995
  C        45.2651148462       16.1281204374       12.2097676534
  C        44.0768322127       16.1031257652       11.4843804143
  C        43.0778548554       17.0700661662       11.7079892702
  C        43.2846531750       18.0339259135       12.7121026973
  C        44.4743737282       18.0657887994       13.4318710267
  C        41.8329321011       17.0958328739       10.9107951872
  C        41.8590342680       17.1191390585        9.4904547117
  C        43.0788357832       17.2287243478        8.7509869847
  C        46.1533087919       26.6371593925        8.7211677641
  C        46.1625778185       26.6561645950       11.5307964780
  C        14.0457548197       17.8321095204       13.7039839842
  C        15.3666920519       17.9072665700       13.0145204261
  C        15.6389301176       18.9212913204       12.0840285270
  C        16.8679453480       18.9587532947       11.4294295445
  C        17.8522314986       17.9814006145       11.6795766065
  C        17.5871118547       16.9969744239       12.6488745350
  C        16.3600668562       16.9587978195       13.3068614962
  C        19.1190627216       17.9554215806       10.9103296507
  C        19.0941532020       17.9267947654        9.4890614614
  C        17.8741620829       17.8152675740        8.7489992896
  C        28.8092390122       14.0929376691        2.3978174969
  C        28.1931337114       12.9196805745        3.0862793742
  C        28.9170069948       12.1727938302        4.0272660707
  C        28.3161366838       11.0985233327        4.6788982252
  C        26.9772525611       10.7470219205        4.4128346722
  C        26.2748048487       11.4743516290        3.4355405544
  C        26.8736021825       12.5489812384        2.7826704573
  C        26.3079366378        9.6669360162        5.1734918048
  C        26.2979679406        9.6919427577        6.5944874542
  C        26.8047508753       10.8033771718        7.3403216348
  C        32.1782101925       21.2393586086        2.1465244183
  C        32.7777622838       22.4034172912        2.8676978765
  C        32.0314086050       23.0826513999        3.8427056295
  C        32.6048744438       24.1201783329        4.5717861641
  C        33.9401799041       24.5064650545        4.3457954986
  C        34.6690920428       23.8458500324        3.3391841014
  C        34.0978529183       22.8027024350        2.6124106427
  C        34.5711669342       25.5811359478        5.1454305343
  C        34.5660935910       25.5517400578        6.5668839450
  C        34.0570311550       24.4368719947        7.3051719064
  C        25.6885573520        8.6141520238        7.3135097024
  C        25.6700264187        8.6170709815        4.5001558363
  C        32.1032950698       21.2258938606       13.8760837904
  C        32.6980935227       22.3746616349       13.1287655993
  C        31.9652924533       23.0375719139       12.1323289136
  C        32.5488380251       24.0658786772       11.3955903696
  C        33.8787482267       24.4618585196       11.6382295391
  C        34.5945901553       23.8122936287       12.6619056940
  C        34.0158556483       22.7780828109       13.3931635445
  C        34.5208612338       25.5428080401       10.8552208855
  C        34.5394155103       25.5325312086        9.4335832647
  C        34.0433393984       24.4281485616        8.6716769013
  C        40.6220152250       17.1206374826        8.7670952253
  C        40.6026347041       17.1171724442       11.5761036493
  C        28.7481807623       14.0672805073       13.8142106230
  C        28.1369495345       12.9194524722       13.0760266826
  C        28.8735530272       12.2209531043       12.1075493476
  C        28.2929064713       11.1644883529       11.4094644059
  C        26.9593128653       10.7801833000       11.6552410885
  C        26.2395178593       11.4664956955       12.6508448894
  C        26.8189027645       12.5236092631       13.3503697362
  C        26.3169657349        9.6897181701       10.8827318140
  C        26.3040958037        9.7034610395        9.4609844509
  C        26.8057719307       10.8100623421        8.7061673572
  C        18.1354328713        3.1810674214        2.3222852177
  C        17.4061720989        4.2783228610        3.0209062614
  C        16.3902060484        4.0000089933        3.9481647703
  C        15.7425304998        5.0400233779        4.6116573467
  C        16.0947168010        6.3837112188        4.3721830643
  C        17.0843413084        6.6532017349        3.4086647066
  C        17.7333762891        5.6158212363        2.7436132398
  C        15.4704011154        7.4914141133        5.1352355164
  C        15.4855370165        7.4906174121        6.5569498033
  C        16.1870107507        6.4969347557        7.3101104327
  C        42.9459325120       31.8596089750        2.0779857545
  C        43.6463777585       30.7719131533        2.8219719341
  C        44.5917996685       31.0932611152        3.8081194584
  C        45.1975282727       30.0877217714        4.5557918588
  C        44.8712271974       28.7346537111        4.3408203135
  C        43.9454969759       28.4202954695        3.3275346010
  C        43.3366460657       29.4254319336        2.5795100723
  C        45.4888132831       27.6553478771        5.1440015426
  C        45.4928124152       27.6808517983        6.5656982605
  C        44.8056003152       28.6888187632        7.3123174987
  C        14.8566546108        8.5631491266        7.2693248690
  C        14.8753031738        8.5632913403        4.4566580737
  C        42.9464538433       31.9616472116       13.8038789069
  C        43.6916874932       30.8854683224       13.0903279762
  C        44.6562893929       31.1913653368       12.1180515319
  C        45.2778232250       30.1717689463       11.4003291595
  C        44.9540341199       28.8214659596       11.6379761673
  C        44.0205082372       28.5238045320       12.6487057058
  C        43.3922408650       29.5405867056       13.3608655131
  C        45.5630760643       27.7240439006       10.8527472239
  C        45.5332780301       27.7172831417        9.4314537329
  C        44.8268382734       28.7074342430        8.6785032053
  C        35.1471810622       26.6239172979        8.7292586016
  C        35.1289882349       26.6022498431       11.5389774774
  C        18.1486054217        3.2470331435       13.7014574886
  C        17.4300489863        4.3438604289       12.9921549666
  C        16.4146245551        4.0526179593       12.0688123749
  C        15.7663392000        5.0832733099       11.3934410499
  C        16.1212664137        6.4284708275       11.6159713161
  C        17.1129136758        6.7118406831       12.5729448162
  C        17.7605562962        5.6828987975       13.2526955823
  C        15.4907659958        7.5241787508       10.8435476862
  C        15.4965382615        7.5075019988        9.4224175673
  C        16.1932069940        6.5057363290        8.6757157756
  H        10.6725483575       12.4655688160       11.8996624838
  H        11.6949286265       10.5507797459       10.6577907035
  H        15.3922326373       11.1693697004       12.7665643641
  H        14.3517541563       13.0721038847       14.0116609236
  H        13.3767249126       11.6314385671        9.1962636881
  H        50.3228647433       22.7481990384       11.9814517782
  H        49.3197450861       24.6226593183       10.6754569672
  H        45.6426860196       24.1618422273       12.8592071330
  H        46.6636168994       22.2908718930       14.1674696046
  H        47.6301016730       23.5759619783        9.2410942359
  H        14.8726192073        8.5885201367       12.6034587484
  H        50.2870928851       22.7021971014        4.0659648580
  H        49.2692131776       24.5751200193        5.3659826775
  H        45.6112147825       24.1102506130        3.1503390464
  H        46.6533142976       22.2548481400        1.8360452415
  H        47.6080847945       23.5519272756        6.8019812355
  H        40.6570463862       17.1475864854        3.4364911129
  H        48.6872762418       14.0950249971       15.7949311448
  H        10.6815234309       12.4666265844        4.0984403302
  H        11.6899755200       10.5247081334        5.3021044161
  H        15.3940699167       11.1597341160        3.2111953380
  H        14.3654931895       13.0880889283        1.9960360861
  H        13.3764278590       11.6224596592        6.7582663319
  H        47.9301720528       14.2189782627        1.7160146950
  H        47.7802921175       14.3747183404       14.4904693792
  H        49.0847928780       18.5529428407        2.8728180144
  H        10.4165361890       14.1342837451        0.0038954326
  H        24.4825364185        3.0282877241       11.9111898731
  H        25.6234193111        4.8880337819       10.6856666231
  H        23.2529907907        7.7543910347       12.8450250507
  H        22.1297996970        5.8850536354       14.0716160173
  H        23.8082995421        5.7935966167        9.2634451182
  H        36.3821865886       32.1838945099       11.9554497661
  H        35.2631823613       30.3562102376       10.6747897586
  H        37.5202014591       27.4377304121       12.8862674076
  H        38.6199655257       29.2781779979       14.1747933013
  H        37.0404028813       29.4422268044        9.2659196963
  H        25.7424444438        8.6090241389       12.6478644557
  H        36.4591806573       32.2384098973        4.1200271881
  H        35.3510267066       30.4173572946        5.4148550947
  H        37.5301748919       27.4861744423        3.1415383292
  H        38.6135815523       29.3189149823        1.8348907972
  H        37.0584627505       29.4617371704        6.8276478001
  H        46.1098052940       26.5878860054        3.3906948794
  H        44.6682298051       35.1162371197       15.8088616224
  H        24.4318598902        3.0417829067        4.0964295633
  H        25.5599981377        4.8824558700        5.3483662052
  H        23.1620231765        7.7689303536        3.2473763256
  H        22.0452853864        5.9163300795        1.9955854894
  H        23.7833857084        5.7958062805        6.8251259217
  H        44.9536109079       34.3902423914        1.7002519257
  H        44.9014464989       34.2066056541       14.4857195742
  H        40.6659580039       33.2092211692        2.8582853372
  H        23.1502627955        1.9581439594        0.0105425355
  H        25.8249998731       19.6424830365       11.8982081714
  H        23.6518009572       19.6916619921       10.6666842866
  H        22.3442427384       16.2285397834       12.8562095926
  H        24.5200871898       16.1974101064       14.0851524778
  H        23.7208735815       17.6601660145        9.2428696070
  H        35.1578545923       15.4375843794       12.0024430596
  H        37.2803500990       15.3982524048       10.6839922710
  H        38.6934580427       18.8118660519       12.8851657245
  H        36.5639607208       18.8337674980       14.2020994879
  H        37.2230553620       17.3635150316        9.2463384344
  H        20.3584686469       17.9856724469       12.6648716442
  H        35.2240920759       15.4336886277        4.0357388604
  H        37.3619115776       15.3854439044        5.3487136922
  H        38.7160317271       18.8778128881        3.2390461124
  H        36.5779534113       18.9078262835        1.9322807964
  H        37.2466020034       17.3865448094        6.8094109866
  H        35.1531869929       26.6791059444        3.3980437350
  H        28.5022866247       21.0708004685       15.9537521379
  H        25.7437651593       19.6329619931        4.1558961462
  H        23.5607300807       19.6816560981        5.3759061899
  H        22.3005153857       16.1665806200        3.2427437523
  H        24.4853825795       16.1382489387        2.0217044625
  H        23.6984736776       17.6413405494        6.8006279320
  H        29.0161099655       21.7131570037        1.7574528722
  H        29.1826677398       21.7254410098       14.6234999757
  H        32.1067504290       18.5695500910        2.9744799604
  H        27.3698443275       19.0214637128        0.0789586088
  H        14.8488180675       19.6444957770        4.1488991021
  H        17.0108211891       19.6861649793        5.3933263493
  H        18.2994092557       16.1814362877        3.2593669663
  H        16.1334364270       16.1550680599        2.0147101701
  H        16.9189200949       17.6877214350        6.8562173346
  H        46.0929869304       15.4573934324        4.0873997593
  H        43.9719307607       15.4171178739        5.4025590027
  H        42.5662785524       18.8464454405        3.2183636601
  H        44.6874781513       18.8612689646        1.8936671549
  H        44.0309916696       17.3653035570        6.8561569283
  H        20.2873312360       17.9132384660        3.4282218780
  H        46.0433891124       15.3900328270       12.0297671713
  H        43.9100487278       15.3321226693       10.7353197709
  H        42.5170007205       18.7840172610       12.8904141581
  H        44.6577391274       18.8293299047       14.1837780380
  H        44.0124682486       17.3328999411        9.2961916790
  H        46.1995367546       26.6828152726       12.6182358746
  H        52.7414255890       21.0627392596        0.1998262844
  H        14.8775223643       19.6736480580       11.8904889746
  H        17.0783432032       19.7476966845       10.7105433876
  H        18.3388957887       16.2365149632       12.8499109741
  H        16.1398510144       16.1856321003       14.0388931655
  H        16.9409496714       17.7073547625        9.2935502126
  H        52.3229998199       21.6735642153       14.2890522804
  H        52.0137281179       21.7024653175        1.5007871359
  H        49.0681546293       18.6080594012       13.1989683631
  H        13.2480959132       19.0159330234       15.9724837584
  H        29.9493429825       12.4484957139        4.2311546886
  H        28.8787218865       10.5174634399        5.4064851216
  H        25.2402335892       11.2127476749        3.2229597029
  H        26.3297923350       13.1317993381        2.0432188789
  H        27.1672036105       11.6717744014        6.7986537215
  H        31.0050499667       22.7713880447        4.0222760917
  H        32.0210122184       24.6472074925        5.3233225196
  H        35.7023499641       24.1355797645        3.1590168582
  H        34.6649950031       22.2671152026        1.8544774222
  H        33.6993711604       23.5699828562        6.7571017891
  H        25.6984367187        8.5987519686        3.4120896018
  H        30.9396931969       22.7291325431       11.9430898214
  H        31.9735138778       24.5818487986       10.6299037675
  H        35.6239979303       24.1073193245       12.8548096170
  H        34.5728149007       22.2542531349       14.1665933870
  H        33.6751354985       23.5542251243        9.2013965591
  H        40.5954843092       17.0760310776       12.6636161598
  H        32.5062204518       14.1476260013        0.2538618440
  H        29.9027016321       12.5203186049       11.9222370362
  H        28.8716842770       10.6179073933       10.6679709189
  H        25.2075709102       11.1826957872       12.8471325758
  H        26.2604144763       13.0697210446       14.1069764871
  H        27.1680226303       11.6835029291        9.2404468689
  H        33.3115976562       14.2381426950       14.4673682242
  H        33.4094588734       14.4179438933        1.5971575218
  H        32.1209104939       18.5009508004       13.1777440106
  H        30.2164588559       14.1896137964        0.0751188774
  H        16.1179699378        2.9635231348        4.1344108681
  H        14.9529301391        4.8206969794        5.3271682890
  H        17.3670745749        7.6860400471        3.2157864004
  H        18.5156304683        5.8184512387        2.0159920553
  H        16.7535624935        5.7396033430        6.7765924157
  H        44.8279699925       32.1403663362        3.9823384127
  H        45.9373341098       30.3414990271        5.3117865900
  H        43.6829270457       27.3782105977        3.1573299254
  H        42.6000968367       29.1901210051        1.8147712110
  H        44.2302442041       29.4365683195        6.7739869564
  H        14.8517250497        8.5466421225        3.3684320369
  H        44.8998361858       32.2340539837       11.9266375125
  H        46.0247482550       30.4129953441       10.6471096637
  H        43.7635638356       27.4840735424       12.8402788889
  H        42.6457206235       29.3178422704       14.1193065187
  H        44.2683068805       29.4702945310        9.2131035687
  H        35.0842230871       26.6158783956       12.6263424468
  H        36.6051514432       35.1340569198        0.1857267211
  H        16.1433629295        3.0130585422       11.8992671445
  H        14.9738678360        4.8564864366       10.6835014155
  H        17.3967355916        7.7472689845       12.7495696412
  H        18.5436879636        5.8933416994       13.9771842297
  H        16.7646348682        5.7554885400        9.2141496043
  H        36.2786580867       34.4824396547       14.2680854117
  H        36.3809400775       34.2091939844        1.5047902933
  H        40.5804088844       33.2028078404       13.1483510226
  H        17.4707958566        1.9477994668       15.9690116604
  H        29.0236604025       19.3614444638        4.5185942117
  H        29.8939829439       19.7408737888       11.5905922128
  H        31.8083529609       15.7640759661       11.5968826840
  H        31.2883523729       15.5902163177        4.5190579723
  H        28.0075770115       18.1628963516        6.6241104248
  H        29.5447764665       15.1825712944        6.3803830577
  H        31.7250681309       19.9396237816        9.4914776525
  H        33.0895930908       16.7745289813        9.4008438849
  H        28.8458981932       16.8178054306        9.2725235895
  H        18.8533305102        0.8690188039        4.3403394616
  H        40.5280557472       35.2289836834       11.9469113102
  H        42.3242546334       34.4189695501       11.5852392394
  H        22.0874439041        0.6922781271        4.3565794924
  H        11.5966902935       18.7128147579        4.3878065368
  H        52.2651044697       18.4313455624       11.6721016201
  H        49.2549611497       16.4774976434       11.5796551828
  H        10.1498034576       15.7982950810        4.2978564038
  H        50.8504046499       17.6924980075       11.9490688222
  H        10.0459030435       17.3946204014        4.0569917552
  H        20.2145500920        0.0021941381        4.0470878473
  H        39.1838114246       36.1244723468       11.6813174299
  H        32.2762574605       18.4034050005        6.9062404297
 Ni        30.9001911787       17.7441968684       10.7456929600
 Ni        31.1541242753       16.3269753252        7.9927055191
 Ni        29.9323923043       18.8879520396        8.0755542108
 Ni        30.2247764272       17.5026282148        5.1700004287
  O        10.6499982888       14.3650887800       13.4807256699
  O        12.6131920435       14.6574958513       14.5788040598
  O        49.1480941088       16.8458489557       15.9846399330
  O        50.3503360330       20.9357811181       13.6429042840
  O        48.3486048344       20.5933289098       14.6607887506
  O        11.0519254596       17.0538443235       14.4956773542
  O        50.3210811255       20.8816470144        2.4119772771
  O        48.3467844339       20.5868013893        1.3322923414
  O        49.5437866738       18.2484015416        2.0733496605
  O        12.3593472173       18.6247393698        0.0048151502
  O        48.6932671369       14.1484997064       14.7462209089
  O         8.2098560507       14.2104540896        1.3277098213
  O        10.7353658972       14.5067991909        2.6694247416
  O        12.5718022736       14.5828027855        1.3336036736
  O        22.8444194777        2.0427988057       13.4822356458
  O        21.6054156962        3.5921369968       14.5846559475
  O        42.0582963501       34.1374929033       15.9739227676
  O        37.9818497393       33.1377450195       13.5673652383
  O        39.2184687055       31.5763663468       14.6618873137
  O        20.3083905641        1.0396002684       14.4970090818
  O        38.0246932832       33.1857548147        2.4203012093
  O        39.2194657294       31.5840245480        1.3312300215
  O        40.6523021058       33.7694342130        2.0653455473
  O        18.2555196136        1.3766916684        0.0018807319
  O        44.6222654114       35.1005149134       14.7536595669
  O        24.2054153961        0.0000050297        1.3258932306
  O        22.7529139838        2.0578828389        2.5889611655
  O        21.6242846783        3.5959316762        1.3475206655
  O        27.4935306952       18.7507420258       13.4911256121
  O        26.7623046730       16.9295815255       14.6457641630
  O        30.6395766770       19.3555967711        0.0564950122
  O        33.5890604049       16.2731200502       13.6631850090
  O        34.2750314276       18.1680949892       14.7303010012
  O        29.5731526181       17.0618660211       14.5686912194
  O        33.6237429552       16.3278863267        2.4147774878
  O        34.3057825100       18.2487623916        1.4106763140
  O        31.6509501968       18.3153550783        2.1561797452
  O        30.3198623601       15.1549113100        0.0907156316
  O        28.5553147614       21.0286563899       14.8889709900
  O        28.5111390720       20.9560753414        1.4149496462
  O        27.4520266465       18.6772842367        2.6635516603
  O        26.6919020938       16.9251867212        1.4194612987
  O        13.1484924432       18.6928763303        2.5925299192
  O        13.9190511194       16.9161957924        1.4100029655
  O        50.5966397614       19.3503243119        0.0256045423
  O        47.6827692284       16.3272889553        2.4226574608
  O        46.9518583708       18.1761324916        1.3295271151
  O        11.0698903495       17.0155018149        1.4947003116
  O        47.6766878667       16.3353798265       13.6482892578
  O        46.9281877183       18.2358249934       14.6601847467
  O        49.5689961452       18.3177142220       13.9772428086
  O        10.3187634341       15.1000877295        0.0022006610
  O        52.6707994511       21.0278868309        1.2469215893
  O        12.1468618589       20.8912870211       14.6681947647
  O        13.1079304467       18.6136786059       13.3206269232
  O        13.9570087666       16.9870574198       14.6604031859
  O        29.9926408924       14.4419495045        2.7387787327
  O        28.0889580261       14.6528261810        1.5009842883
  O        32.1416308127       16.8529531909        0.0845247409
  O        30.9652566916       20.9537100628        2.4112214344
  O        32.9460877529       20.6010430663        1.3407387480
  O        29.5668377851       17.0709496719        1.5822499860
  O        30.8724148874       20.9476835368       13.6561272703
  O        32.8766832152       20.5871530157       14.6618578489
  O        31.6854027637       18.2555209840       14.0085186090
  O        28.2592340157       18.6328048616        0.0782428084
  O        32.4933603631       14.2125410071        1.3338009309
  O        32.4060253304       14.2139055361       14.8193343249
  O        29.9197879939       14.4368997794       13.4856793228
  O        28.0391249520       14.5879049052       14.7468816979
  O        17.8892320541        1.9666785208        2.6679294297
  O        18.9562120863        3.5271786324        1.4130983106
  O        39.1685820236       34.1389033554        0.0023054022
  O        43.2802732776       33.0589770250        2.3368485013
  O        42.0346224033       31.5064121263        1.2467496204
  O        20.3176705687        1.0367994055        1.4852482149
  O        43.2761267877       33.1825611005       13.5697719614
  O        42.0053109477       31.5840786170       14.5778626060
  O        40.5790233824       33.7750517209       13.9307759968
  O        22.3673373490        1.3846524706        0.0030709844
  O        36.6727682260       35.0998192857        1.2383778786
  O        16.4455833962        0.0642926905       14.6631872669
  O        17.9364799789        2.0433945325       13.3212448292
  O        18.9190125991        3.5931609808       14.6607996957
  O        29.8700581754       18.8980168410       12.0787355393
  O        29.7515078232       18.9777843022        3.9925400830
  O        31.3082579403       16.4027624663       12.1387785510
  O        31.3892739809       16.4116075830        3.9966452571
  O        32.1587428708       16.5580162860        9.5796056136
  O        29.7274087193       17.2121316657        9.1619109431
  O        30.3299895052       15.7504566832        6.3389767733
  O        31.3802956005       18.0271991620        6.9066001344
  O        30.8771490927       19.4945524107        9.6441389022
  O        28.8910347792       18.5420168468        6.4954319640
  O        39.4568468774       35.2437891703       11.9968206974
  O        19.1411989708        0.0045139298        3.9956562729
  O        41.9695717560       35.1725819878       12.0820315726
  O        21.6912117513       -0.0693130737        3.9010428107
  O        51.3652209544       18.6143099917       12.0002417150
  O        10.7509816795       18.7471158836        3.9100661726
  O        50.0795372214       16.4127534803       12.0865659363
  O         9.5239338910       16.4831748511        3.9963286282
 Zr         9.2981721705       16.0526898191       14.1774319144
 Zr        49.8371947055       16.0067290288        1.7513235669
 Zr        22.0732979016        0.0302401496       14.1838854623
 Zr        42.4609579936       35.1538843586        1.8061277036
 Zr        29.5944594941       19.0791368447       14.2402015963
 Zr        29.5639559738       19.1702359252        1.8530819438
 Zr        11.0389489418       19.0518908254        1.8329879626
 Zr        11.0449289679       19.1548028449       14.2456330085
 Zr        31.3525916642       16.1029832491        1.8729858636
 Zr        31.3847564650       16.0174989201       14.2784042505
 Zr        18.6012185689       -0.0010033894        1.7683938432
 Zr        18.5065702610       -0.0073628604       14.2086637815
 Zr        12.3032306658       16.3235960770       15.9852354829
 Zr        48.6180511587       18.8334920611        0.0154329004
 Zr        20.3152968575        2.4738556438       15.9853727402
 Zr        40.6436553078       32.6875319445       15.9731786412
 Zr        28.3413131223       16.3378747983        0.0846119886
 Zr        32.6156679289       18.8357420483        0.0556157526
  O        34.3944179432       16.0498525842        7.7377384383
  H        34.5061437020       15.0982833427        7.8924619885
  H        34.7187852034       16.1881274475        6.8310787866
