     578
 i =      164, E =     -4812.1611437175
  C        11.8586332821       14.0534400551       13.7364456188
  C        12.4561084904       12.8903836960       13.0182365573
  C        11.7043465387       12.1713719528       12.0766901268
  C        12.2807040474       11.1091367180       11.3843460882
  C        13.6213269977       10.7394362206       11.6119571033
  C        14.3545370020       11.4430345601       12.5853841662
  C        13.7816556885       12.5080066948       13.2769017668
  C        14.2609390172        9.6488249443       10.8385297597
  C        14.2561270737        9.6566546235        9.4168195441
  C        13.7425481785       10.7585683516        8.6628915581
  C        49.1265958742       21.2333401653       13.8746739961
  C        48.5496866712       22.4011999739       13.1474225509
  C        49.2998242119       23.0687953961       12.1667133935
  C        48.7328655370       24.1078977288       11.4334817270
  C        47.4022146717       24.5092061594       11.6619094833
  C        46.6710925971       23.8600110731       12.6750713530
  C        47.2335710067       22.8151058192       13.4044129474
  C        46.7719959853       25.5869629871       10.8646646033
  C        46.7607979012       25.5572730644        9.4429095814
  C        47.2604911050       24.4420319214        8.6994820255
  C        14.8603133347        8.5704619936        8.7035405329
  C        14.8920333367        8.5970378622       11.5151592743
  C        49.1131012289       21.2034142016        2.1504133687
  C        48.5276188657       22.3646919948        2.8777834940
  C        49.2668759753       23.0256204189        3.8705045567
  C        48.6904751560       24.0601292035        4.6020035113
  C        47.3599792886       24.4566366787        4.3638925545
  C        46.6394898607       23.8114678648        3.3406113603
  C        47.2131064304       22.7755720000        2.6088452088
  C        46.7215193641       25.5316720368        5.1548385703
  C        46.7330368547       25.5280162302        6.5765413738
  C        47.2482267415       24.4286879980        7.3329301191
  C        40.6339494860       17.1411096959        7.3267415854
  C        40.6546271142       17.1627264931        4.5177263470
  C        11.8828326399       14.0864188352        2.2905547326
  C        12.4721196838       12.9105119278        2.9947245391
  C        11.7145004977       12.1771797509        3.9206460090
  C        12.2810461937       11.0946808633        4.5890665118
  C        13.6199337943       10.7210795060        4.3574510545
  C        14.3579807955       11.4366938134        3.3967358582
  C        13.7925772077       12.5178670188        2.7240295737
  C        14.2536027269        9.6243788452        5.1279024667
  C        14.2522448907        9.6442830368        6.5497509238
  C        13.7419628861       10.7530273229        7.2968453764
  C        22.5143859174        3.2460718133       13.7477568188
  C        23.2324926835        4.3509078584       13.0500278266
  C        24.2334826718        4.0702084964       12.1078231741
  C        24.8650566632        5.1086981970       11.4278877022
  C        24.5119787082        6.4517846878       11.6682363502
  C        23.5390517410        6.7238491736       12.6477079624
  C        22.9032338494        5.6872412441       13.3267003683
  C        25.1215155930        7.5575061679       10.8925760714
  C        25.1012708476        7.5462910618        9.4704354477
  C        24.4027205679        6.5448344549        8.7239092338
  C        38.2986227948       31.9283522504       13.8466537498
  C        37.5574240995       30.8387310156       13.1442960481
  C        36.5897851999       31.1451568017       12.1750551779
  C        35.9598491203       30.1270640833       11.4639528855
  C        36.2822807511       28.7759779907       11.6987731881
  C        37.2197679792       28.4767424012       12.7053943512
  C        37.8534063984       29.4939673442       13.4159572786
  C        35.6726349529       27.6875530082       10.8990283597
  C        35.7123121001       27.7040579591        9.4770273970
  C        36.4235029124       28.7063066135        8.7441482852
  C        25.7264688922        8.6148826827        8.7498007547
  C        25.7133635080        8.6361209733       11.5627200906
  C        38.3306024703       31.9617159435        2.1646118731
  C        37.6126301315       30.8886797346        2.9139411607
  C        36.6797632933       31.1994654000        3.9152351794
  C        36.0686768201       30.1832265855        4.6479277139
  C        36.3757763117       28.8297243339        4.4031925908
  C        37.2896803710       28.5286728403        3.3746194971
  C        37.9024786443       29.5416006955        2.6431393360
  C        35.7604694868       27.7317164535        5.1852887768
  C        35.7574043305       27.7266701588        6.6079883318
  C        36.4438886481       28.7179000037        7.3775968956
  C        46.1352406131       26.6208139799        7.2866246487
  C        46.0878360056       26.5801422326        4.4787258631
  C        22.4650203130        3.2572432361        2.2642168176
  C        23.1664302787        4.3631503348        2.9860036708
  C        24.1695309140        4.0718575068        3.9247710422
  C        24.8051833186        5.0977731872        4.6206740974
  C        24.4592793771        6.4465383257        4.4017456151
  C        23.4795734865        6.7309640157        3.4310747885
  C        22.8392277457        5.7053441119        2.7354474169
  C        25.0969356701        7.5418888136        5.1766281171
  C        25.0894389704        7.5373717147        6.6000069726
  C        24.3947230075        6.5420176748        7.3571017193
  C        26.6220738576       17.8573706281       13.7435317433
  C        25.3187914509       17.9113449487       13.0169683818
  C        25.0486481482       18.9151883304       12.0738009064
  C        23.8300178290       18.9362279016       11.3977410786
  C        22.8459912924       17.9573534540       11.6443392374
  C        23.1120340561       16.9767508823       12.6183618444
  C        24.3313323443       16.9506971401       13.2920703781
  C        21.5705624693       17.9408461061       10.8852849656
  C        21.5719380515       17.9140558273        9.4634870064
  C        22.7779393845       17.7831156762        8.7052298117
  C        34.4420701229       17.1910921202       13.9116790574
  C        35.7327231733       17.1384659598       13.1703628270
  C        35.9173082750       16.2005355117       12.1423182014
  C        37.0985054884       16.1895020420       11.4064066074
  C        38.1247366361       17.1155068416       11.6767399640
  C        37.9416781947       18.0327477606       12.7298919911
  C        36.7589856552       18.0494758848       13.4642570327
  C        39.3779107232       17.1296120258       10.8903154675
  C        39.3747470877       17.1548074834        9.4684383929
  C        38.1694125858       17.2842511236        8.7094329027
  C        20.3260243831       17.9310304114        8.7549191318
  C        20.3467266111       17.9434890271       11.5687247703
  C        34.4793996518       17.2418343942        2.1859194058
  C        35.7804842512       17.1671799162        2.9072217700
  C        35.9769920955       16.2056844349        3.9100288193
  C        37.1627904013       16.1872482989        4.6383651369
  C        38.1777655514       17.1301548696        4.3842142508
  C        37.9862878387       18.0654850852        3.3496789617
  C        36.7993030471       18.0891517474        2.6233804753
  C        39.4228621594       17.1523818901        5.1809739729
  C        39.3978844010       17.1670274719        6.6021508163
  C        38.1803712495       17.2880391111        7.3430667996
  C        35.1204801849       26.6484332890        7.3079759386
  C        35.1747316791       26.6603754592        4.4982229589
  C        26.5852149738       17.7926877832        2.3626171678
  C        25.2683840318       17.8481058652        3.0589649659
  C        25.0087637025       18.8485903301        4.0075238228
  C        23.7837865864       18.8841952277        4.6670259233
  C        22.7930488081       17.9165475719        4.4063313253
  C        23.0482047836       16.9412322706        3.4251643767
  C        24.2716228788       16.9061373471        2.7596732937
  C        21.5274265642       17.9012587633        5.1752125590
  C        21.5496847589       17.8902400991        6.5967034884
  C        22.7670879977       17.7697204390        7.3393655337
  C        14.0459855433       17.8293189723        2.2924177360
  C        15.3510919075       17.8874476506        3.0156759244
  C        15.6085791582       18.8920028648        3.9613593631
  C        16.8181584159       18.9131517240        4.6529111232
  C        17.8034008547       17.9325656490        4.4199893509
  C        17.5509640426       16.9524743649        3.4417534308
  C        16.3407810228       16.9267537305        2.7520368401
  C        19.0717619203       17.9140561394        5.1889809012
  C        19.0686270640       17.9100799742        6.6113112385
  C        17.8608984629       17.8126137558        7.3717976453
  C        46.8062919296       17.2194180083        2.1645961007
  C        45.5186089202       17.1610144414        2.9123052110
  C        45.3145362219       16.1881003036        3.9029001656
  C        44.1345221673       16.1747195308        4.6414193912
  C        43.1297186807       17.1342849362        4.4103936373
  C        43.3311623717       18.0866475890        3.3932514350
  C        44.5117941275       18.1041723167        2.6559369155
  C        41.8771704786       17.1495997945        5.1983205871
  C        41.8815903750       17.1519610498        6.6199513133
  C        43.0897865620       17.2454042750        7.3796707573
  C        20.3144896899       17.9192870988        7.3204304041
  C        20.2961564568       17.8933823137        4.5074579540
  C        46.7854149118       17.2303023136       13.8851080905
  C        45.4817972051       17.1234415499       13.1721596344
  C        45.2650405597       16.1293121957       12.2060322015
  C        44.0769916789       16.1044007866       11.4800515032
  C        43.0767630334       17.0702631279       11.7038501135
  C        43.2830234533       18.0323177757       12.7101002005
  C        44.4723034578       18.0641128630       13.4307623259
  C        41.8319471974       17.0977978857       10.9057145611
  C        41.8586880370       17.1236234928        9.4851091294
  C        43.0789316797       17.2293228684        8.7461410754
  C        46.1530055782       26.6372757082        8.7211749990
  C        46.1623622339       26.6562379896       11.5308063872
  C        14.0442559647       17.8313487601       13.7031052866
  C        15.3643586814       17.9055964682       13.0104020042
  C        15.6353621501       18.9210681921       12.0812265455
  C        16.8630961008       18.9592140847       11.4240837072
  C        17.8473928387       17.9811525298       11.6708453374
  C        17.5830962635       16.9941942913       12.6378361136
  C        16.3572351627       16.9554817685       13.2982843625
  C        19.1143308922       17.9579968792       10.9013302821
  C        19.0908014757       17.9321942374        9.4796895651
  C        17.8715916668       17.8222769994        8.7379859082
  C        28.8110666502       14.0832422631        2.3653923055
  C        28.2101487972       12.9102599234        3.0616087588
  C        28.9317232300       12.2004963928        4.0330618329
  C        28.3426092992       11.1237444756        4.6916138068
  C        27.0171847803       10.7353095952        4.4073708347
  C        26.3179360927       11.4288707307        3.4026575537
  C        26.9049435102       12.5038272067        2.7402693616
  C        26.3529542001        9.6545890449        5.1726738278
  C        26.3371591050        9.6829652605        6.5943653555
  C        26.8360773470       10.7978662224        7.3398825600
  C        32.1821000507       21.2357845461        2.1500069143
  C        32.7759394325       22.4022999835        2.8733706827
  C        32.0225625714       23.0865070220        3.8408242714
  C        32.5915634292       24.1268282912        4.5703706405
  C        33.9290450909       24.5130581685        4.3528274214
  C        34.6645354217       23.8464893385        3.3549371106
  C        34.0984387842       22.8000863589        2.6281812008
  C        34.5541750431       25.5911189356        5.1538468548
  C        34.5357075893       25.5642191958        6.5752210680
  C        34.0248070840       24.4480933343        7.3099368349
  C        25.7261415543        8.6060386166        7.3143074839
  C        25.7158316124        8.6022815857        4.5006355240
  C        32.0976126695       21.1661100642       13.8367983724
  C        32.6610512207       22.3335745712       13.0952456473
  C        31.9249730221       22.9895535804       12.0961662213
  C        32.4940401159       24.0403352801       11.3780512711
  C        33.8133221395       24.4638329001       11.6374374001
  C        34.5297039382       23.8209311453       12.6652240218
  C        33.9653848009       22.7686382886       13.3805038532
  C        34.4517760552       25.5551593014       10.8642015233
  C        34.4817923029       25.5465518056        9.4423809067
  C        33.9981201687       24.4397913532        8.6759385519
  C        40.6219090183       17.1305830242        8.7608553492
  C        40.6012063096       17.1175497998       11.5701191775
  C        28.7260536302       14.1000585970       13.8114127699
  C        28.1185372432       12.9484864495       13.0806168701
  C        28.8567308689       12.2647154125       12.1012416091
  C        28.2854815056       11.2020490273       11.4053875966
  C        26.9594762479       10.7958773378       11.6596068086
  C        26.2392260727       11.4681115172       12.6658540751
  C        26.8087635724       12.5308555142       13.3656297080
  C        26.3265780298        9.6993038597       10.8858854880
  C        26.3249266180        9.7059764009        9.4629293293
  C        26.8278159309       10.8101992148        8.7056407495
  C        18.1356398906        3.1811674359        2.3222912294
  C        17.4064720967        4.2783179198        3.0209042607
  C        16.3904937870        4.0000101457        3.9481828117
  C        15.7428212942        5.0399958438        4.6116814887
  C        16.0950195117        6.3836962653        4.3722326929
  C        17.0847446650        6.6531819334        3.4088081073
  C        17.7338385980        5.6158308240        2.7437720237
  C        15.4705480802        7.4913346634        5.1352536301
  C        15.4857519529        7.4905820626        6.5569617127
  C        16.1875376406        6.4971176251        7.3101126920
  C        42.9459252609       31.8596876941        2.0780102932
  C        43.6464101820       30.7719959613        2.8217655154
  C        44.5916249569       31.0933612926        3.8081345450
  C        45.1973929639       30.0878309553        4.5557763225
  C        44.8713226060       28.7347106526        4.3406801989
  C        43.9459971123       28.4203364477        3.3269905010
  C        43.3371718514       29.4254477604        2.5789371226
  C        45.4887378834       27.6553843054        5.1439360204
  C        45.4928448059       27.6810857614        6.5656311507
  C        44.8061127811       28.6893682478        7.3122615440
  C        14.8565214837        8.5629226744        7.2693144125
  C        14.8751136497        8.5629996396        4.4566351560
  C        42.9465544888       31.9618944886       13.8038097552
  C        43.6919564013       30.8857762998       13.0905666510
  C        44.6561417527       31.1917320390       12.1178590972
  C        45.2777122417       30.1721600451       11.4001471534
  C        44.9543538580       28.8217848439       11.6380821423
  C        44.0214859640       28.5240995431       12.6494568686
  C        43.3932116613       29.5408252943       13.3616641383
  C        45.5631815312       27.7243319933       10.8527739360
  C        45.5333868694       27.7176292576        9.4314741711
  C        44.8273953818       28.7080432110        8.6784465632
  C        35.0950726640       26.6384200923        8.7430848189
  C        35.0591153698       26.6128588302       11.5537214392
  C        18.1489625880        3.2472229319       13.7015522673
  C        17.4305683979        4.3439841631       12.9921778497
  C        16.4151349418        4.0527450906       12.0688171072
  C        15.7668479021        5.0833663404       11.3934242435
  C        16.1217069016        6.4285915833       11.6159546760
  C        17.1133917608        6.7119375912       12.5729105582
  C        17.7610857371        5.6830392018       13.2526825679
  C        15.4910360069        7.5242236169       10.8435449157
  C        15.4968085386        7.5075127961        9.4224128876
  C        16.1937774964        6.5059505411        8.6757185840
  H        10.6721538670       12.4653676798       11.8997876364
  H        11.6942893191       10.5505541446       10.6579780234
  H        15.3915783539       11.1684405136       12.7670736542
  H        14.3510968696       13.0712217068       14.0123546333
  H        13.3751339754       11.6305228316        9.1962006835
  H        50.3226336336       22.7489619108       11.9822032918
  H        49.3194021422       24.6234108175       10.6761141422
  H        45.6414723146       24.1605017899       12.8579787093
  H        46.6624725245       22.2894520212       14.1661626945
  H        47.6288589278       23.5756185065        9.2412332875
  H        14.8724835865        8.5883495614       12.6034702527
  H        50.2870154457       22.7029721817        4.0652410510
  H        49.2688937468       24.5757894461        5.3653496485
  H        45.6099974313       24.1084873843        3.1516954806
  H        46.6522519952       22.2530951183        1.8375125495
  H        47.6068419556       23.5515055268        6.8020188427
  H        40.6622350869       17.1243303836        3.4301507613
  H        48.6868178456       14.0946535844       15.7948575424
  H        10.6809424594       12.4660874880        4.0978596967
  H        11.6890748298       10.5241396379        5.3015014980
  H        15.3934350489       11.1588315083        3.2108967605
  H        14.3649554611       13.0872416055        1.9955373914
  H        13.3747197337       11.6214587831        6.7582013701
  H        47.9303180954       14.2166591901        1.7162179329
  H        47.7797900221       14.3714857347       14.4895193953
  H        49.0835442037       18.5522302019        2.8725115048
  H        10.4156174367       14.1342284426        0.0037884755
  H        24.4950491901        3.0314999090       11.9184447482
  H        25.6415459822        4.8890445095       10.6983149629
  H        23.2580669783        7.7570545433       12.8410459818
  H        22.1306103039        5.8900368646       14.0643523444
  H        23.8404086384        5.7885588134        9.2637252028
  H        36.3561382740       32.1892128611       11.9802397213
  H        35.2104463888       30.3703332046       10.7138753649
  H        37.4778426870       27.4368545821       12.8950328344
  H        38.6026964638       29.2692514604       14.1714466280
  H        36.9843110203       29.4564301162        9.2941114975
  H        25.7429632381        8.6220509784       12.6507776132
  H        36.4529908074       32.2440960787        4.1162028065
  H        35.3385901372       30.4314011511        5.4151821469
  H        37.5410706435       27.4882656666        3.1793180292
  H        38.6289801154       29.3131854691        1.8670554295
  H        37.0212663789       29.4765838153        6.8569617878
  H        46.1094857515       26.5875380410        3.3906930986
  H        44.6687777902       35.1163607124       15.8087804225
  H        24.4425294442        3.0322041235        4.0909147169
  H        25.5863102698        4.8626568644        5.3405285734
  H        23.2001004272        7.7671105087        3.2512458613
  H        22.0677229234        5.9247649381        2.0009029619
  H        23.8256783426        5.7842418858        6.8263529562
  H        44.9553978956       34.3916908375        1.7009464237
  H        44.9032711443       34.2075984145       14.4851606169
  H        40.6674680966       33.2101827767        2.8587212326
  H        23.1510455266        1.9582688113        0.0105946003
  H        25.7982985563       19.6814081658       11.8891572588
  H        23.6243648947       19.7202418867       10.6720384642
  H        22.3638364544       16.2119641927       12.8165994118
  H        24.5481453049       16.1810615735       14.0291585822
  H        23.7178852026       17.6615347892        9.2355134480
  H        35.1208246655       15.4943486491       11.9201621633
  H        37.2376922685       15.4536598728       10.6174598748
  H        38.7265021357       18.7554971074       12.9431612852
  H        36.6013287493       18.7723731047       14.2612968496
  H        37.2286584859       17.4062336948        9.2382941312
  H        20.3533779521       17.9854161718       12.6565196459
  H        35.1820198975       15.4933815016        4.1193774789
  H        37.3129410554       15.4386337914        5.4132017549
  H        38.7647943441       18.7987427839        3.1495539012
  H        36.6292576707       18.8289284973        1.8447303822
  H        37.2481856213       17.4118997972        6.7998077147
  H        35.1562571999       26.6857376767        3.4103099744
  H        28.5198627132       21.0857510643       15.9928638145
  H        25.7786772972       19.5885715376        4.2135017409
  H        23.5810078990       19.6645182563        5.3972790766
  H        22.2916171710       16.1869995962        3.2187540253
  H        24.4850556716       16.1417054575        2.0163772270
  H        23.6985920858       17.6376381602        6.7970856242
  H        28.9719135353       21.7200188586        1.7933166389
  H        29.1039023021       21.7733247240       14.5993080626
  H        32.1238168416       18.5237856507        2.9900759604
  H        27.4032216120       19.0774013249        0.0830778573
  H        14.8502053029       19.6511764736        4.1392453105
  H        17.0148362026       19.6978325800        5.3803104066
  H        18.3017928968       16.1876877931        3.2538685625
  H        16.1330752424       16.1569358395        2.0126600277
  H        16.9187302917       17.6976418532        6.8437564739
  H        46.0974518550       15.4561255061        4.0867872710
  H        43.9755010106       15.4125627487        5.4010761484
  H        42.5625338483       18.8348953868        3.2113475926
  H        44.6846459859       18.8535195714        1.8870890813
  H        44.0319692545       17.3604057030        6.8514266517
  H        20.2906496130       17.9246326568        3.4193718326
  H        46.0433790096       15.3915053400       12.0251164516
  H        43.9111882746       15.3339020885       10.7302381577
  H        42.5146540401       18.7813969451       12.8895518162
  H        44.6539346016       18.8265305154       14.1842292596
  H        44.0129343545       17.3307373721        9.2911357426
  H        46.1994734713       26.6828425995       12.6182415464
  H        52.7409593439       21.0625100233        0.1997459510
  H        14.8738954843       19.6741705100       11.8907860118
  H        17.0724120327       19.7497569114       10.7066243879
  H        18.3343977732       16.2323758451       12.8355618103
  H        16.1376294298       16.1807717628       14.0289233791
  H        16.9375320682       17.7146224225        9.2811487521
  H        52.3220248612       21.6731635739       14.2893984051
  H        52.0129216525       21.7018177845        1.5006805738
  H        49.0667078812       18.6073263852       13.1991464195
  H        13.2471807772       19.0165754164       15.9718969155
  H        29.9483304441       12.5113277857        4.2637267039
  H        28.9058736241       10.5720862971        5.4411920378
  H        25.2936431393       11.1407493503        3.1753586733
  H        26.3612782516       13.0590810487        1.9798691136
  H        27.2001214401       11.6663411969        6.7993835938
  H        30.9916624951       22.7827189038        4.0104769558
  H        32.0011297550       24.6585168026        5.3136200874
  H        35.6996209517       24.1338066429        3.1813250340
  H        34.6725102226       22.2605985968        1.8781734611
  H        33.6795479623       23.5783382049        6.7587023595
  H        25.7467707508        8.5817011659        3.4126623411
  H        30.9084197184       22.6610975459       11.8904454332
  H        31.9146829768       24.5513684361       10.6120317422
  H        35.5506408672       24.1346880800       12.8729365590
  H        34.5252482073       22.2525764595       14.1568313814
  H        33.6325063003       23.5629007412        9.2022785199
  H        40.5939750208       17.0682065891       12.6572837910
  H        32.5117473714       14.1520460137        0.2573564644
  H        29.8779507615       12.5812077780       11.9002649756
  H        28.8686940479       10.6697569123       10.6570317461
  H        25.2135001039       11.1685304555       12.8710744526
  H        26.2472558234       13.0626350375       14.1302516687
  H        27.1850024167       11.6881809565        9.2356358974
  H        33.2985803438       14.1995154912       14.4415897815
  H        33.4122830577       14.3862983051        1.6090703369
  H        32.1338945931       18.4612848087       13.1532222569
  H        30.2265626993       14.1970080797        0.0697958198
  H        16.1181799477        2.9635442509        4.1343804565
  H        14.9531776623        4.8207215727        5.3271581198
  H        17.3675425446        7.6860174580        3.2160160963
  H        18.5162744808        5.8185201410        2.0163583494
  H        16.7543671744        5.7399787280        6.7766164797
  H        44.8277649460       32.1404489469        3.9825141073
  H        45.9371223283       30.3417003906        5.3118193271
  H        43.6839156670       27.3781875438        3.1564252390
  H        42.6011790394       29.1900556933        1.8136967293
  H        44.2312172442       29.4374808656        6.7739618605
  H        14.8514608537        8.5462874984        3.3684107780
  H        44.8995090076       32.2344154235       11.9261565599
  H        46.0244124521       30.4134972977       10.6467360968
  H        43.7651736826       27.4843046568       12.8415359165
  H        42.6473601110       29.3179831929       14.1207254068
  H        44.2693425393       29.4713055330        9.2129673569
  H        35.0107953976       26.6238443458       12.6410220132
  H        36.6055943498       35.1342892624        0.1857073617
  H        16.1438527096        3.0132010984       11.8992607143
  H        14.9743474236        4.8566011997       10.6835104388
  H        17.3971765206        7.7473718904       12.7495498177
  H        18.5442965975        5.8935468379       13.9770709219
  H        16.7654871507        5.7559103757        9.2141460705
  H        36.2792750772       34.4826159084       14.2676608551
  H        36.3817850264       34.2088261486        1.5042069210
  H        40.5805691295       33.2032040684       13.1482899558
  H        17.4717982160        1.9480582973       15.9691469059
  H        28.7834430447       18.9344731703        4.4025686057
  H        29.9586657331       19.4462543867       11.1136409585
  H        32.1387950966       15.8973551561       11.6123244999
  H        31.2957326758       15.4612149096        4.4545625889
  H        28.0793341586       17.4161650477        6.8155610434
  H        29.4646812480       15.0405480875        6.6869579186
  H        31.5247199195       19.9893376572        9.5030974618
  H        33.2790222098       17.2908667623        9.1164721169
  H        28.9738231540       16.5667788430        9.2250936057
  H        18.8544011335        0.8692313236        4.3403654338
  H        40.5283138301       35.2286877268       11.9466920524
  H        42.3261911250       34.4210292430       11.5840479817
  H        22.0878457750        0.6918449952        4.3571199555
  H        11.5969163829       18.7130700761        4.3875522953
  H        52.2646502016       18.4308105700       11.6722405931
  H        49.2556469381       16.4761452429       11.5788065980
  H        10.1501160715       15.7981110870        4.2980673576
  H        50.8495350092       17.6923032252       11.9491615907
  H        10.0461602092       17.3943492549        4.0570994082
  H        20.2161839844        0.0025236223        4.0468806807
  H        39.1841193521       36.1246152391       11.6814585889
  H        32.1909200754       18.2219023691        6.6025731794
 Ni        31.0745911123       17.4939809369       10.2516949688
 Ni        31.6173443559       15.9116876020        7.8269205675
 Ni        29.9283514874       18.7438598764        7.8262547416
 Ni        30.1409859641       17.1602572858        5.4099479254
  O        10.6499507055       14.3650867126       13.4806917410
  O        12.6131792598       14.6575001889       14.5787397832
  O        49.1480951179       16.8459329563       15.9846453789
  O        50.3501173738       20.9363027826       13.6430720950
  O        48.3484398950       20.5934021437       14.6608242265
  O        11.0513885197       17.0539556816       14.4954917982
  O        50.3209203258       20.8817484196        2.4119835466
  O        48.3467164813       20.5868193626        1.3322409216
  O        49.5436916036       18.2484466013        2.0734061107
  O        12.3588822569       18.6245272553        0.0047562471
  O        48.6933361655       14.1485055152       14.7462027283
  O         8.2099269914       14.2103211350        1.3276030672
  O        10.7353701254       14.5067486445        2.6694661341
  O        12.5717966435       14.5827861617        1.3336216762
  O        22.8448731297        2.0438968401       13.4819268138
  O        21.6066907518        3.5930837432       14.5839230680
  O        42.0583462177       34.1377414380       15.9738476449
  O        37.9812094987       33.1364799234       13.5669743613
  O        39.2170847311       31.5748608265       14.6605912289
  O        20.3087767023        1.0402626583       14.4974242491
  O        38.0243309129       33.1851074043        2.4208758336
  O        39.2183522590       31.5828949971        1.3324830575
  O        40.6523155541       33.7694850944        2.0651813460
  O        18.2560932431        1.3763338848        0.0019152232
  O        44.6221242174       35.1006852986       14.7536908550
  O        24.2054165213        0.0000410495        1.3257907423
  O        22.7535633324        2.0577474856        2.5893805055
  O        21.6260394506        3.5976688654        1.3511791632
  O        27.5445549352       18.6928656684       13.4078304444
  O        26.7311131991       16.9913535757       14.6653096500
  O        30.6660808299       19.4070952744        0.0788643129
  O        33.5854114544       16.2751439552       13.6606259408
  O        34.2745485681       18.1675306663       14.7265981486
  O        29.5758551947       17.0692588746       14.5662143146
  O        33.6193065152       16.3296700980        2.4144161725
  O        34.3059282174       18.2474258453        1.4111484404
  O        31.6519810507       18.3127914259        2.1681117980
  O        30.3228884901       15.1635107240        0.0814573480
  O        28.5548035281       21.0302516599       14.9042180297
  O        28.5131645531       20.9516308670        1.4136615210
  O        27.4948318279       18.6083797412        2.7380914439
  O        26.6943049910       16.9307525910        1.4186906402
  O        13.1485299208       18.6931185723        2.5922008430
  O        13.9189993144       16.9160348839        1.4096102651
  O        50.5960046411       19.3503013858        0.0255719913
  O        47.6840369589       16.3269047007        2.4222489379
  O        46.9523578920       18.1758531932        1.3294227894
  O        11.0695949968       17.0155464400        1.4947889081
  O        47.6765668674       16.3354593950       13.6481070087
  O        46.9277410687       18.2356159109       14.6597221635
  O        49.5685963316       18.3177722217       13.9770803730
  O        10.3185741612       15.1001245620        0.0021612973
  O        52.6707435820       21.0278843128        1.2469286286
  O        12.1468111444       20.8911601896       14.6680812169
  O        13.1074482076       18.6139034117       13.3205022091
  O        13.9567804396       16.9871008720       14.6599735209
  O        29.9998105898       14.4337990813        2.6675797885
  O        28.0774400146       14.6585004073        1.4881339808
  O        32.1332989461       16.8569276713        0.0735352778
  O        30.9670941941       20.9496942499        2.4186384143
  O        32.9475215311       20.6004913167        1.3436382451
  O        29.5692629980       17.0791430821        1.5817156130
  O        30.8845826611       20.8169487593       13.5740242860
  O        32.8712655635       20.5849567326       14.6610746323
  O        31.6735855932       18.2524344383       13.9822972899
  O        28.2901082337       18.6810042899        0.0873241301
  O        32.4937353373       14.2125542082        1.3320574097
  O        32.4010293069       14.2206069829       14.8139712491
  O        29.9095124220       14.4479691641       13.4887189744
  O        28.0093881179       14.6488620556       14.7296498334
  O        17.8892959892        1.9666084670        2.6678339102
  O        18.9564131833        3.5271406966        1.4130341898
  O        39.1685736843       34.1386911653        0.0022707842
  O        43.2801416625       33.0590333273        2.3367915990
  O        42.0343283314       31.5065464868        1.2467281016
  O        20.3181077977        1.0372431476        1.4848914856
  O        43.2760494636       33.1827719978       13.5698194523
  O        42.0052151635       31.5841893534       14.5778828063
  O        40.5789257386       33.7751552402       13.9309204455
  O        22.3677326701        1.3851827774        0.0031580816
  O        36.6729135425       35.0997928688        1.2383950482
  O        16.4459567797        0.0643587906       14.6631515577
  O        17.9366546336        2.0434366445       13.3213790063
  O        18.9193509233        3.5931383712       14.6609468601
  O        29.5702485593       18.9805141243       11.9164434664
  O        29.7087656074       19.0394906608        4.0955339764
  O        31.3967581375       16.4129502562       11.9859731189
  O        31.3407637813       16.3339454693        4.0083029810
  O        32.6152390771       16.6497054220        9.4185301815
  O        29.7795472867       17.0016265844        8.9053114837
  O        30.2934830065       15.3889309945        6.3236613280
  O        31.4019725445       17.7381002479        6.8960806695
  O        30.7512764606       19.4079213750        9.5744490042
  O        28.6516125659       18.0917430063        6.4176500830
  O        39.4568857373       35.2437974219       11.9968997231
  O        19.1422670131        0.0047806855        3.9954944737
  O        41.9694122134       35.1728214990       12.0820721481
  O        21.6912659207       -0.0693587272        3.9011652904
  O        51.3648966186       18.6142638887       12.0003007584
  O        10.7511367847       18.7473083406        3.9100323710
  O        50.0798835706       16.4128878909       12.0865475260
  O         9.5245114068       16.4830782462        3.9963429497
 Zr         9.2961575912       16.0525142519       14.1772373673
 Zr        49.8357242811       16.0064071732        1.7516623816
 Zr        22.0740604161        0.0314196119       14.1834077123
 Zr        42.4618000673       35.1547474709        1.8064465723
 Zr        29.6282675863       19.1029826725       14.3416648538
 Zr        29.5792936137       19.1661322583        1.9285370088
 Zr        11.0374622090       19.0518185762        1.8326383389
 Zr        11.0432312596       19.1547773205       14.2461168572
 Zr        31.3548854768       16.0891466901        1.8872499890
 Zr        31.3878135173       16.0105177223       14.2301671542
 Zr        18.6021762784        0.0000750350        1.7683255480
 Zr        18.5075964542       -0.0062076012       14.2088699690
 Zr        12.3010098592       16.3232928186       15.9851146291
 Zr        48.6159019877       18.8327042767        0.0153048581
 Zr        20.3173784823        2.4759587017       15.9859245819
 Zr        40.6447807813       32.6883709761       15.9728779781
 Zr        28.3488888540       16.3429873951        0.0936285072
 Zr        32.6439544758       18.8128401914        0.0651915280
  O        30.2017180828       20.3688507552        6.4140500051
  H        31.0334928883       20.8663163349        6.3773238799
  H        30.0820299583       19.9568892834        5.4920686209
  O        32.5745618529       14.3565294178        7.8204941582
  H        32.1904034375       13.7817062981        7.1350048908
  H        28.6114278730       18.8443418573       11.7753548006
