     581
 i =      516, E =     -4818.9787260503
  C        11.8583371645       14.0533922883       13.7365873504
  C        12.4541960440       12.8896821153       13.0182195436
  C        11.7001194507       12.1708980280       12.0783278530
  C        12.2740758529       11.1075444524       11.3858560625
  C        13.6146215232       10.7365449761       11.6116326239
  C        14.3503146653       11.4401433694       12.5831857425
  C        13.7797716402       12.5062733900       13.2749238385
  C        14.2512736867        9.6443546485       10.8380709591
  C        14.2441605552        9.6509509753        9.4163642721
  C        13.7313408730       10.7532204712        8.6625072329
  C        49.1272065067       21.2316866039       13.8739349645
  C        48.5495816596       22.3977903276       13.1453847584
  C        49.2986057717       23.0643290008       12.1632047978
  C        48.7299678923       24.1014385342       11.4285423469
  C        47.3990276980       24.5013431478       11.6574233880
  C        46.6691009469       23.8532478364       12.6721015183
  C        47.2331865709       22.8104328484       13.4027868016
  C        46.7665633892       25.5774561985       10.8603787965
  C        46.7539886041       25.5482363108        9.4388044505
  C        47.2565499657       24.4350304160        8.6943305282
  C        14.8456264201        8.5632553410        8.7030327059
  C        14.8818746689        8.5922961454       11.5145225555
  C        49.1132869662       21.2035759843        2.1495409811
  C        48.5268739459       22.3652547727        2.8748689059
  C        49.2650739083       23.0287227446        3.8665944765
  C        48.6862210125       24.0622585427        4.5974454524
  C        47.3544954116       24.4547016579        4.3595827899
  C        46.6353668446       23.8076508954        3.3366608027
  C        47.2114758939       22.7729694450        2.6054049982
  C        46.7125725700       25.5267153481        5.1513094741
  C        46.7245143753       25.5213424043        6.5728568122
  C        47.2435707957       24.4228423717        7.3278512357
  C        40.6314783536       17.1348910492        7.3347239231
  C        40.6555906321       17.1828185278        4.5259594932
  C        11.8820446081       14.0861133173        2.2900827767
  C        12.4684517047       12.9087233732        2.9938603042
  C        11.7078693427       12.1770252487        3.9186715145
  C        12.2708110857       11.0929734735        4.5874108838
  C        13.6089342043       10.7161951706        4.3569776026
  C        14.3500045280       11.4302548676        3.3974045890
  C        13.7882077267       12.5131354912        2.7244162433
  C        14.2390713455        9.6177392818        5.1275993564
  C        14.2376909526        9.6374702797        6.5494235675
  C        13.7295610390       10.7471968293        7.2964632048
  C        22.3876529770        3.2514544268       13.6348647910
  C        23.1169316065        4.3581148178       12.9579211923
  C        24.1379394668        4.0812441081       12.0371402832
  C        24.8005320116        5.1250623071       11.3976907556
  C        24.4540576421        6.4662272322       11.6556581780
  C        23.4615650565        6.7339972663       12.6151190939
  C        22.7977795528        5.6918751134       13.2568939724
  C        25.0784902642        7.5733032542       10.8971837253
  C        25.0492231273        7.5716314563        9.4761586160
  C        24.3315007810        6.5841067398        8.7305077826
  C        38.3029095496       31.9319094403       13.8440932774
  C        37.5759452987       30.8412052022       13.1343059983
  C        36.6212018322       31.1428870572       12.1512032674
  C        36.0084533368       30.1209306153       11.4314807893
  C        36.3353130717       28.7723736701       11.6740181944
  C        37.2599945087       28.4782821662       12.6937138241
  C        37.8773909848       29.4988548186       13.4117505936
  C        35.7366085589       27.6787358721       10.8769354821
  C        35.7712560405       27.6911395533        9.4557056272
  C        36.4788082800       28.6920763671        8.7180554081
  C        25.6840593663        8.6353079089        8.7589530278
  C        25.6869010776        8.6385285322       11.5716992736
  C        38.3326104371       31.9653401282        2.1575085623
  C        37.6121887783       30.8900340139        2.8998957800
  C        36.6867170941       31.1956835064        3.9094017865
  C        36.0793323613       30.1750411114        4.6387194100
  C        36.3830478413       28.8228754902        4.3824122902
  C        37.2857596987       28.5272931647        3.3425995811
  C        37.8951173559       29.5443945651        2.6145902033
  C        35.7785914468       27.7214518320        5.1668574099
  C        35.7928441256       27.7127153718        6.5889279002
  C        36.4886321591       28.7027623194        7.3514897581
  C        46.1232352792       26.6113147852        7.2840266763
  C        46.0751857017       26.5735939902        4.4762558361
  C        22.3559197618        3.2721344109        2.3770101421
  C        23.0686230593        4.3736001119        3.0917692409
  C        24.0899286994        4.0884319263        4.0107954242
  C        24.7521728382        5.1225892786        4.6685239264
  C        24.4092108240        6.4687736793        4.4315521673
  C        23.4102279907        6.7466315105        3.4808446366
  C        22.7476036771        5.7135140153        2.8210508844
  C        25.0530947809        7.5688191725        5.1897828854
  C        25.0369153601        7.5689485369        6.6117239890
  C        24.3245492033        6.5834010089        7.3644804780
  C        26.6246678620       17.8608415453       13.7771591426
  C        25.3164071711       17.9075549434       13.0538925963
  C        25.0621571567       18.8958889131       12.0896525477
  C        23.8491454129       18.9156362530       11.4033575343
  C        22.8534652019       17.9503637032       11.6592356629
  C        23.1044493057       16.9854246839       12.6530185766
  C        24.3193294103       16.9601117061       13.3366286591
  C        21.5799471011       17.9327463185       10.8951325050
  C        21.5793046223       17.9026389262        9.4726398631
  C        22.7841701804       17.7740928404        8.7120219250
  C        34.4437444235       17.1888466712       13.9446757997
  C        35.7320529439       17.1296568095       13.1934975533
  C        35.9296069004       16.1614965212       12.1967067844
  C        37.1057308624       16.1489258210       11.4509624214
  C        38.1173058624       17.1007225164       11.6851562006
  C        37.9222271275       18.0487104284       12.7077850159
  C        36.7427587499       18.0688367480       13.4480773712
  C        39.3710486448       17.1096164308       10.8969895434
  C        39.3692733273       17.1318524255        9.4754299825
  C        38.1632921250       17.2528938588        8.7156050017
  C        20.3325116763       17.9174347245        8.7642948711
  C        20.3549238100       17.9389553146       11.5774519993
  C        34.4790110800       17.2477363645        2.1828570109
  C        35.7820974972       17.1769903943        2.9074344925
  C        36.0032215657       16.1840403401        3.8733745401
  C        37.1872473465       16.1684983749        4.6051406213
  C        38.1783876022       17.1453778076        4.3895223945
  C        37.9641287249       18.1140917822        3.3916781421
  C        36.7777019941       18.1344626900        2.6629389788
  C        39.4234843239       17.1633854505        5.1880118825
  C        39.3962344149       17.1609436112        6.6088731105
  C        38.1761178010       17.2651247030        7.3489154993
  C        35.1633644411       26.6332583910        7.2935974410
  C        35.1862600938       26.6513470893        4.4845904953
  C        26.5699897097       17.8234011440        2.3312640947
  C        25.2566346946       17.8675934870        3.0383420023
  C        24.9946127790       18.8642204246        3.9903612656
  C        23.7765156356       18.8864165426        4.6634170174
  C        22.7914923457       17.9113470170        4.4089884055
  C        23.0478395286       16.9395490184        3.4245505008
  C        24.2664046317       16.9155429355        2.7493861158
  C        21.5284045525       17.8890015016        5.1824174549
  C        21.5530514017       17.8780574696        6.6040675146
  C        22.7716340307       17.7619825746        7.3458099041
  C        14.0466550351       17.8277382133        2.2948437890
  C        15.3504682509       17.8813831082        3.0215265520
  C        15.6081562754       18.8809856586        3.9726893549
  C        16.8169785937       18.8978000818        4.6661207262
  C        17.8026456101       17.9178752602        4.4306895090
  C        17.5496308154       16.9426077352        3.4474964081
  C        16.3402926027       16.9210539412        2.7557896333
  C        19.0721078654       17.8975277037        5.1991564858
  C        19.0716313423       17.8929187524        6.6216871634
  C        17.8650563618       17.7935853750        7.3834919067
  C        46.8062851890       17.2214136429        2.1662956138
  C        45.5193679118       17.1676108644        2.9176672808
  C        45.3130549596       16.1952383732        3.9083288117
  C        44.1339890663       16.1857150268        4.6488774539
  C        43.1315357564       17.1484851474        4.4200967795
  C        43.3357612606       18.1014173813        3.4039388590
  C        44.5155314639       18.1150094569        2.6647117915
  C        41.8780040604       17.1631070258        5.2076136561
  C        41.8800584778       17.1550185576        6.6293387872
  C        43.0870872963       17.2475701959        7.3911571277
  C        20.3187156070       17.9041875271        7.3294564179
  C        20.2959779902       17.8787305480        4.5163286443
  C        46.7845454972       17.2293574439       13.8866714292
  C        45.4787200357       17.1191275837       13.1768236435
  C        45.2618648636       16.1234053468       12.2124270820
  C        44.0724144991       16.0952809761       11.4886764949
  C        43.0705158939       17.0591940377       11.7134308466
  C        43.2766235234       18.0225563645       12.7183964190
  C        44.4676204185       18.0577113826       13.4364823596
  C        41.8254553384       17.0839915418       10.9149377686
  C        41.8534786487       17.1122918053        9.4944456444
  C        43.0744085883       17.2251284588        8.7573450116
  C        46.1421751383       26.6267586135        8.7183610450
  C        46.1556367690       26.6451004474       11.5277479741
  C        14.0461582957       17.8318487630       13.7037264198
  C        15.3677510209       17.9061247739       13.0140795775
  C        15.6406599549       18.9183105124       12.0817558560
  C        16.8700931070       18.9546908139       11.4275155835
  C        17.8547588295       17.9781719492       11.6798105644
  C        17.5888929754       16.9955645209       12.6508030084
  C        16.3613860223       16.9584279810       13.3082914058
  C        19.1221746984       17.9510266617       10.9107970216
  C        19.0976144412       17.9194344217        9.4894096638
  C        17.8777667766       17.8054219814        8.7494893362
  C        28.8097697621       14.0966088124        2.3983199059
  C        28.1934757631       12.9269481799        3.0924277202
  C        28.9191684098       12.1822122050        4.0341753367
  C        28.3195017769       11.1093305818        4.6895100530
  C        26.9807310069       10.7563098284        4.4246632427
  C        26.2762658073       11.4820949928        3.4476011733
  C        26.8732693736       12.5561327075        2.7923347917
  C        26.3115961010        9.6764248859        5.1853936985
  C        26.2980989421        9.7044324899        6.6067322245
  C        26.8071983346       10.8134955556        7.3541953685
  C        32.1820251105       21.2391273931        2.1478374369
  C        32.7790792344       22.4014550908        2.8695221826
  C        32.0381319928       23.0707933762        3.8555576897
  C        32.6113533887       24.1094765871        4.5825588544
  C        33.9416890175       24.5061686633        4.3454731824
  C        34.6652575214       23.8544009382        3.3288307520
  C        34.0943448351       22.8107633826        2.6031069738
  C        34.5738011393       25.5803134826        5.1448113861
  C        34.5696982350       25.5499338918        6.5665733550
  C        34.0608601931       24.4352826958        7.3055565057
  C        25.6806432774        8.6314936832        7.3253567838
  C        25.6744155023        8.6256653928        4.5115794934
  C        32.1064031034       21.2282863951       13.8740803387
  C        32.6982111063       22.3790008083       13.1309898461
  C        31.9687890625       23.0351092111       12.1274799276
  C        32.5524096469       24.0633394281       11.3912155443
  C        33.8792262510       24.4654546545       11.6399430861
  C        34.5915053546       23.8229440739       12.6709539869
  C        34.0127928853       22.7892280417       13.4025093300
  C        34.5226057982       25.5444047506       10.8552514617
  C        34.5422582742       25.5324152789        9.4333152158
  C        34.0464594836       24.4275017771        8.6721544083
  C        40.6174939237       17.1160346689        8.7688814546
  C        40.5936567993       17.1014945294       11.5780327358
  C        28.7490045742       14.0702747986       13.8160147570
  C        28.1379972117       12.9217372797       13.0815607192
  C        28.8724222386       12.2220777282       12.1124471609
  C        28.2890175880       11.1649411265       11.4181502430
  C        26.9556175097       10.7831880229       11.6685033436
  C        26.2385063498       11.4702865023       12.6653986549
  C        26.8205869905       12.5274334852       13.3615422528
  C        26.3077781532        9.6975350882       10.8959584247
  C        26.2973160968        9.7150512732        9.4739900158
  C        26.8056534410       10.8196012352        8.7206081453
  C        18.1296917306        3.1825544945        2.3207939634
  C        17.3946185345        4.2771706162        3.0161468050
  C        16.3811426509        3.9946395638        3.9448267726
  C        15.7307622216        5.0321840540        4.6094561765
  C        16.0783354231        6.3770876767        4.3701947651
  C        17.0652051934        6.6505470541        3.4049537032
  C        17.7166755354        5.6157680857        2.7384577304
  C        15.4529395654        7.4830610280        5.1344966778
  C        15.4682570126        7.4820227842        6.5562279231
  C        16.1697171650        6.4882028763        7.3092031259
  C        42.9408111035       31.8554590298        2.0764399326
  C        43.6350392157       30.7663534183        2.8234107949
  C        44.5796475206       31.0854978794        3.8110114930
  C        45.1828943794       30.0784772368        4.5584165459
  C        44.8549744953       28.7261792010        4.3413145594
  C        43.9291353325       28.4139966577        3.3275806463
  C        43.3226108113       29.4207508623        2.5798266941
  C        45.4730095734       27.6461068306        5.1428683812
  C        45.4771905557       27.6702053948        6.5644495119
  C        44.7874663413       28.6756209823        7.3121755284
  C        14.8404735251        8.5551306346        7.2688099255
  C        14.8586261488        8.5554971128        4.4562068224
  C        42.9436505826       31.9548608088       13.7964113465
  C        43.6876463900       30.8751632320       13.0875151954
  C        44.6496613376       31.1793968631       12.1121170626
  C        45.2695737906       30.1585397044       11.3954081509
  C        44.9458504295       28.8089962588       11.6367530837
  C        44.0154393811       28.5129210618       12.6507444340
  C        43.3890416851       29.5311596186       13.3626052586
  C        45.5530815782       27.7116303124       10.8508171106
  C        45.5203525552       27.7049444687        9.4296983173
  C        44.8100685308       28.6935072582        8.6783319549
  C        35.1509067927       26.6232001549        8.7284047593
  C        35.1308248780       26.6044380984       11.5381381331
  C        18.1431476327        3.2475116419       13.7037942196
  C        17.4210226360        4.3419441238       12.9946345849
  C        16.4068418832        4.0482702511       12.0707619299
  C        15.7570959259        5.0774209479       11.3943743218
  C        16.1097056423        6.4233858877       11.6159877216
  C        17.1000277499        6.7090885458       12.5736964936
  C        17.7487003595        5.6817703007       13.2546723755
  C        15.4783359329        7.5180172112       10.8429503690
  C        15.4819360077        7.5000731693        9.4218074968
  C        16.1771184794        6.4975090779        8.6748288437
  H        10.6680158628       12.4660436374       11.9029379536
  H        11.6859302255       10.5490555505       10.6608262781
  H        15.3874045165       11.1646465236       12.7632051911
  H        14.3511028792       13.0695409384       14.0088939762
  H        13.3659132734       11.6260076987        9.1958178336
  H        50.3216638677       22.7452410073       11.9787606220
  H        49.3153501942       24.6165984960       10.6700489055
  H        45.6393056704       24.1531023209       12.8550143035
  H        46.6633786298       22.2853790138       14.1658743769
  H        47.6279281816       23.5693708050        9.2352310274
  H        14.8639666718        8.5845661105       12.6028647849
  H        50.2859950075       22.7085454950        4.0613665295
  H        49.2633005773       24.5799108254        5.3604534834
  H        45.6050695673       24.1020373359        3.1480156215
  H        46.6519158627       22.2485966011        1.8344598333
  H        47.6047366035       23.5473554336        6.7958948259
  H        40.6635797921       17.1568793707        3.4379969400
  H        48.6870280089       14.0950004661       15.7948801971
  H        10.6748957395       12.4686467937        4.0946789619
  H        11.6767402085       10.5236466185        5.2990632138
  H        15.3849851864       11.1498156696        3.2128154778
  H        14.3628487344       13.0815111749        1.9969009423
  H        13.3633779561       11.6160778609        6.7578199036
  H        47.9301075773       14.2182976985        1.7159801726
  H        47.7801335784       14.3737993527       14.4900666505
  H        49.0845707087       18.5529927643        2.8726981787
  H        10.4158941339       14.1342747772        0.0037840409
  H        24.3899095257        3.0429253828       11.8331412589
  H        25.5917460937        4.9125159553       10.6819779329
  H        23.1874534046        7.7669161987       12.8194296605
  H        22.0111144558        5.8880574196       13.9812817468
  H        23.7561648473        5.8372606656        9.2693183383
  H        36.3844664160       32.1856318295       11.9532721090
  H        35.2677726038       30.3579565609       10.6709159313
  H        37.5194824993       27.4396432381       12.8879039934
  H        38.6173559718       29.2799133849       14.1778730407
  H        37.0446479619       29.4414869001        9.2638405321
  H        25.7221958983        8.6185759791       12.6594715610
  H        36.4643390284       32.2393329978        4.1201871408
  H        35.3563527198       30.4181929051        5.4142332381
  H        37.5323680921       27.4877015893        3.1371864710
  H        38.6147543040       29.3207322824        1.8308705845
  H        37.0628500486       29.4600047294        6.8254549322
  H        46.0966695567       26.5823305432        3.3882292826
  H        44.6667672766       35.0332373164       15.7857926963
  H        24.3567047087        3.0494768684        4.1910205757
  H        25.5473562445        4.8968040384        5.3758391180
  H        23.1335623157        7.7817705788        3.2914113541
  H        21.9624635003        5.9234960550        2.0988067651
  H        23.7437242918        5.8364690596        6.8316175830
  H        44.9203605607       34.2836933491        1.7143157897
  H        44.7929082037       34.1098114139       14.4596068385
  H        40.6899964551       33.2132388906        2.7919847933
  C        23.7094810689        2.3183774594        0.0043510697
  H        25.8278662622       19.6441178773       11.8959174298
  H        23.6574005625       19.6887231571       10.6621799370
  H        22.3479372449       16.2311793001       12.8600507698
  H        24.5234482058       16.2008582985       14.0880523224
  H        23.7250912785       17.6561467603        9.2414742685
  H        35.1453208390       15.4303770080       12.0146581612
  H        37.2577485373       15.3907671015       10.6857225718
  H        38.6952617909       18.7916933566       12.8929168024
  H        36.5749673488       18.8161824429       14.2201980501
  H        37.2227725925       17.3661377977        9.2471735449
  H        20.3618366751       17.9859309444       12.6650483590
  H        35.2278677085       15.4412057423        4.0456320241
  H        37.3589838756       15.3953906878        5.3509757791
  H        38.7239629457       18.8740778047        3.2214375178
  H        36.5891028632       18.8989821131        1.9128584348
  H        37.2453803790       17.3862720259        6.8022151148
  H        35.1542279532       26.6791360456        3.3970441708
  H        28.5010168962       21.0771565801       15.8745054650
  H        25.7569233130       19.6140265346        4.1881112202
  H        23.5743633536       19.6634401134        5.3973887743
  H        22.2954587820       16.1800757051        3.2219120276
  H        24.4803797207       16.1538068480        2.0034748398
  H        23.7032821198       17.6354096590        6.8024068045
  H        28.9882415934       21.7288752100        1.7584033355
  H        29.1913535829       21.7225240612       14.5633235039
  H        32.1355351412       18.5621261731        2.9612855844
  H        27.3978064724       19.0630970121        0.0842817571
  H        14.8508178399       19.6405932346        4.1532418568
  H        17.0129351070       19.6793669103        5.3970726191
  H        18.3000229077       16.1782000327        3.2563076915
  H        16.1337145330       16.1546679825        2.0125337457
  H        16.9224902266       17.6760297588        6.8567497512
  H        46.0934781233       15.4601667339        4.0906554634
  H        43.9738357764       15.4232782575        5.4080151454
  H        42.5701025527       18.8530891916        3.2234601441
  H        44.6897979233       18.8647485468        1.8965354414
  H        44.0294692370       17.3684403875        6.8645364379
  H        20.2894533713       17.9112496718        3.4282708362
  H        46.0416315215       15.3873516112       12.0304858717
  H        43.9073246772       15.3240906391       10.7394059164
  H        42.5072942496       18.7704758497       12.8986915638
  H        44.6492059410       18.8215924087       14.1885191358
  H        44.0071309336       17.3277509064        9.3043339792
  H        46.1945871762       26.6717715929       12.6151019274
  H        52.7412502732       21.0626851345        0.1997972933
  H        14.8793842670       19.6703237459       11.8862569843
  H        17.0803648023       19.7423980124       10.7072197622
  H        18.3404674956       16.2354120302       12.8538017234
  H        16.1410578958       16.1864908189       14.0416024418
  H        16.9447336371       17.6968562437        9.2942369523
  H        52.3233071942       21.6734710453       14.2888617793
  H        52.0134890778       21.7022072807        1.5008832554
  H        49.0675352638       18.6072487736       13.1989821798
  H        13.2478184179       19.0160335566       15.9725161329
  H        29.9534080398       12.4553039974        4.2329202175
  H        28.8839799040       10.5294480198        5.4166265460
  H        25.2415576840       11.2194679112        3.2369868794
  H        26.3279096112       13.1375832838        2.0529445228
  H        27.1750583836       11.6807441619        6.8143239657
  H        31.0168599994       22.7514565660        4.0480450090
  H        32.0312659689       24.6272535506        5.3432079836
  H        35.6949582325       24.1512114839        3.1401927518
  H        34.6583618736       22.2826148522        1.8377043255
  H        33.7017357549       23.5668733351        6.7607441571
  H        25.7064241700        8.6043960889        3.4236542160
  H        30.9472699340       22.7204370764       11.9275483819
  H        31.9794643576       24.5716877050       10.6188161373
  H        35.6187076724       24.1223324084       12.8686691640
  H        34.5681280605       22.2705342000       14.1805143328
  H        33.6763544339       23.5532859852        9.2002445440
  H        40.5851296695       17.0561781920       12.6653961191
  H        32.5050116908       14.1471961448        0.2534110863
  H        29.9007704767       12.5209349127       11.9220076430
  H        28.8653146400       10.6170479056       10.6757378906
  H        25.2066605030       11.1878217394       12.8639779236
  H        26.2649842719       13.0753608290       14.1188532927
  H        27.1718258048       11.6912934184        9.2550673068
  H        33.3105913957       14.2376876592       14.4714536252
  H        33.4102596233       14.4074735347        1.5999820975
  H        32.1100888681       18.4905990691       13.1534218666
  H        30.2170907635       14.1942506462        0.0728919095
  H        16.1142319251        2.9568922238        4.1318986275
  H        14.9429737119        4.8098603910        5.3260352163
  H        17.3439981133        7.6844780769        3.2122641246
  H        18.4973078506        5.8213103887        2.0099340917
  H        16.7354340799        5.7303185698        6.7755796078
  H        44.8178491875       32.1319243896        3.9863273743
  H        45.9224040269       30.3301402869        5.3153898973
  H        43.6652014615       27.3724387932        3.1562555111
  H        42.5863223957       29.1875234007        1.8141831545
  H        44.2093636730       29.4218894797        6.7747149912
  H        14.8351261540        8.5391845496        3.3679806200
  H        44.8916656087       32.2218110107       11.9174043676
  H        46.0144882231       30.3978241644       10.6396080091
  H        43.7591153003       27.4735081426       12.8448536746
  H        42.6444527470       29.3102102104       14.1235286257
  H        44.2498710201       29.4543359108        9.2140636160
  H        35.0850303953       26.6195613382       12.6254374532
  H        36.6056229187       35.1303684634        0.1938493382
  H        16.1375977235        3.0081271179       11.9014984152
  H        14.9652594718        4.8487015480       10.6843460251
  H        17.3817670479        7.7451567691       12.7498841100
  H        18.5306190169        5.8940256099       13.9799245845
  H        16.7486300455        5.7471005170        9.2129325940
  H        36.2828519773       34.4812581564       14.2656627388
  H        36.3986446027       34.2050467652        1.5125995244
  H        40.5711166990       33.2061994013       13.1438948318
  H        17.4572256340        1.9442839843       15.9797269955
  H        28.7535187677       19.1135705716        4.3397754986
  H        29.9669736659       19.7697636233       11.5583734355
  H        31.7587677357       15.7251309058       11.5442424225
  H        31.3447307551       15.5905165825        4.5057799317
  H        28.1908819676       17.3653428912        6.7762310263
  H        29.5865232869       14.8682245200        6.2763347590
  H        31.9170582515       19.4850711475        9.0324292501
  H        32.9065653335       16.9612480876        9.1350341010
  H        28.7407894411       16.7767601563        9.4078326529
  H        18.9207817726        0.8417251489        4.3130600505
  H        40.5235122241       35.2330491226       11.9435760548
  H        42.2756809358       34.3566402555       11.6192589446
  H        22.0411610163        0.6326286366        4.2983398090
  H        11.5968222387       18.7130582138        4.3876893816
  H        52.2650173172       18.4311574282       11.6720839680
  H        49.2549249302       16.4774258508       11.5795736412
  H        10.1496263856       15.7983294843        4.2980905086
  H        50.8502311505       17.6924894461       11.9491134968
  H        10.0458422069       17.3945662235        4.0570561193
  H        20.3538897925       -0.0351136402        3.9628124121
  H        39.1759072363       36.1223499949       11.6768820843
 Ni        30.8604701076       17.7188094526       10.6575327564
 Ni        31.0256716274       16.1115106604        7.8327176632
 Ni        29.6766023136       18.9913126773        7.9928290574
 Ni        30.1024119594       17.4209889676        5.1656418709
  O        10.6496389956       14.3653486063       13.4808353727
  O        12.6131647061       14.6573042663       14.5785829930
  O        49.1480025018       16.8458083025       15.9845853153
  O        50.3507363484       20.9345193178       13.6426799805
  O        48.3488006932       20.5929205028       14.6609529678
  O        11.0518607404       17.0537241648       14.4956009941
  O        50.3208294597       20.8817982301        2.4119482187
  O        48.3467721856       20.5863741240        1.3318247118
  O        49.5437764370       18.2483848512        2.0733653524
  O        12.3591805199       18.6246129205        0.0048165169
  O        48.6932721652       14.1485458050       14.7461898576
  O         8.2098339236       14.2104264427        1.3277112040
  O        10.7348938311       14.5071813417        2.6692752132
  O        12.5717962042       14.5825372469        1.3338431333
  O        22.6784981634        2.0510729215       13.3244539070
  O        21.5208830627        3.5967433767       14.5122489459
  O        42.1175074524       34.1385128163       15.9271259961
  O        37.9818038411       33.1397921073       13.5677155060
  O        39.2192588467       31.5776583526       14.6617231710
  O        20.3128582414        1.0322958311       14.5608421639
  O        38.0277933981       33.1884354357        2.4176421550
  O        39.2226604670       31.5853908424        1.3277264599
  O        40.6607011108       33.7694051318        1.9962505842
  O        18.2499619043        1.3841625993        0.0044489537
  O        44.5929157225       35.0224398579       14.7400862965
  O        24.2417249932       -0.0735109017        1.3334036050
  O        22.5909469201        2.0675154266        2.7337461350
  O        21.5741581867        3.6427924015        1.4245853263
  O        27.5002145615       18.7496333529       13.4868944689
  O        26.7658494255       16.9339806309       14.6489587550
  O        30.6444352238       19.3594179684        0.0246767991
  O        33.5891685737       16.2656673766       13.7279267426
  O        34.2776617006       18.1785097853       14.7359886558
  O        29.5746111319       17.0630808505       14.5640053800
  O        33.6226731303       16.3294726905        2.4139858715
  O        34.3043756123       18.2491427663        1.4101243249
  O        31.6489065791       18.3191676249        2.1575321993
  O        30.3221519107       15.1594936671        0.0880326792
  O        28.5546583483       21.0316767672       14.8252942547
  O        28.5131490160       20.9566101217        1.4079491319
  O        27.4590812024       18.6766912561        2.6656509539
  O        26.6940457198       16.9293688963        1.4183057408
  O        13.1492378774       18.6926481002        2.5927667812
  O        13.9192819197       16.9160925674        1.4099792007
  O        50.5964145131       19.3502040930        0.0256269235
  O        47.6827327785       16.3273986710        2.4226870943
  O        46.9519932210       18.1761166246        1.3294030505
  O        11.0698541464       17.0155021169        1.4947450845
  O        47.6761024613       16.3355337467       13.6481572205
  O        46.9269968956       18.2357355890       14.6594928390
  O        49.5688288706       18.3176231694       13.9772379608
  O        10.3187025411       15.1001400689        0.0022027239
  O        52.6707680709       21.0278464692        1.2469337500
  O        12.1469030519       20.8911621181       14.6682191512
  O        13.1085044570       18.6135377416       13.3204588962
  O        13.9572981201       16.9870470850       14.6603016239
  O        29.9937685287       14.4445667475        2.7376251486
  O        28.0893489385       14.6544717035        1.4998926674
  O        32.1375517414       16.8553452600        0.0812780216
  O        30.9663644337       20.9512299528        2.4123750180
  O        32.9455397775       20.6011394430        1.3396658071
  O        29.5676885907       17.0770857599        1.5843798717
  O        30.8745572577       20.9465975801       13.6534325489
  O        32.8768824132       20.5872442569       14.6607292523
  O        31.6880377237       18.2495389038       13.9935402260
  O        28.2883105908       18.6761273980        0.0758279815
  O        32.4925301949       14.2130618806        1.3334476107
  O        32.4032642930       14.2136423727       14.8191821415
  O        29.9212180478       14.4397250891       13.4848930637
  O        28.0404331724       14.5911500312       14.7485786930
  O        17.8919110680        1.9682313125        2.6670341409
  O        18.9525852716        3.5305979367        1.4136318049
  O        39.1689365298       34.1382190198       -0.0030747616
  O        43.2782868828       33.0543674735        2.3347516297
  O        42.0311118164       31.5065239886        1.2425559696
  O        20.3637136398        1.0311667514        1.4161936193
  O        43.2717319293       33.1735083177       13.5544445089
  O        42.0045730575       31.5827261297       14.5759939512
  O        40.5782452312       33.7800375978       13.9250352296
  O        22.5106997338        1.4792833184       -0.0021664781
  O        36.6757714959       35.0995190138        1.2424961514
  O        16.4463281648        0.0645355141       14.6622850995
  O        17.9383634413        2.0430486707       13.3212230454
  O        18.9121403254        3.5950145738       14.6620625610
  O        29.9434741662       18.9079858851       12.0115322530
  O        29.6956402962       19.0578489987        4.0758665230
  O        31.3095218981       16.4074656061       12.0771139966
  O        31.3797022053       16.4242120801        3.9967483649
  O        32.0702072887       16.5471543503        9.4053746350
  O        29.5680951485       17.2225283539        9.1584205588
  O        30.2372453643       15.5890176007        6.2466459730
  O        31.2332006238       17.8848380894        6.8262989700
  O        31.0389649800       19.3356482147        9.4181350949
  O        28.7109627730       18.1017266919        6.4129040150
  O        39.4551381577       35.2459710225       11.9988309030
  O        19.2066374797        0.0009245722        3.9154284421
  O        41.9704276685       35.1592451362       12.0716471186
  O        21.6600448485       -0.1380288461        3.8424515989
  O        51.3652094019       18.6142633302       12.0002821055
  O        10.7510911107       18.7471478814        3.9099960254
  O        50.0794470075       16.4127765516       12.0866079813
  O         9.5239092449       16.4832185296        3.9963466081
 Zr         9.2972969612       16.0528461666       14.1773522135
 Zr        49.8364535217       16.0067807550        1.7514367381
 Zr        22.0672371264        0.0541385144       14.1630948105
 Zr        42.4838896034       35.1551525382        1.7409720097
 Zr        29.6104614845       19.0750635191       14.2098842574
 Zr        29.5814049056       19.1917671667        1.8407861539
 Zr        11.0385064318       19.0518986096        1.8328491627
 Zr        11.0445241014       19.1546843240       14.2458425516
 Zr        31.3591361377       16.1048023906        1.8690349399
 Zr        31.3875933455       16.0153302174       14.2642979908
 Zr        18.6161276288        0.0102006375        1.7634204385
 Zr        18.5049830783       -0.0009871193       14.2165826153
 Zr        12.3026000014       16.3236430525       15.9852308441
 Zr        48.6171027924       18.8330900636        0.0152157884
 Zr        20.3212066841        2.5067196286       15.9926268140
 Zr        40.6484811163       32.6955129762       15.9580467958
 Zr        28.3482297311       16.3460678001        0.0862340141
 Zr        32.6235845479       18.8361649655        0.0492308569
  H        32.1149459025       18.2673903261        6.6871871306
  O        28.3065316385       20.1373999718        8.5023259718
  H        30.8114645855       14.8137744074        8.4302327671
  H        27.7652729202       19.7866268816        9.2323555481
  O        30.2437400644       20.5869971940        6.5745007124
  H        30.1172487322       20.1885552830        5.6728180833
  H        29.4617125669       21.1508796391        6.7224421464
  H        23.4283084634        3.3735312493       -0.0206729392
  H        24.3309031757        2.0947785722       -0.8655898558
  H        24.2944579569        2.1160377155        0.9043963786
