     584
 i =      169, E =     -4846.6684778174
  C        11.8585755913       14.0535937268       13.7364583110
  C        12.4560741022       12.8905673872       13.0181645586
  C        11.7043371906       12.1716464941       12.0765478772
  C        12.2806659293       11.1093990881       11.3841925083
  C        13.6212421101       10.7396010690       11.6118893735
  C        14.3544368897       11.4431430305       12.5853619498
  C        13.7815897043       12.5081493667       13.2768627874
  C        14.2608067266        9.6489382973       10.8385021164
  C        14.2562218209        9.6568822692        9.4167962752
  C        13.7428992945       10.7589336031        8.6628849088
  C        49.1267306111       21.2332067243       13.8745767161
  C        48.5499720576       22.4011094043       13.1474540537
  C        49.3001655711       23.0687489437       12.1667956424
  C        48.7332145586       24.1078703055       11.4335864194
  C        47.4025369667       24.5091921127       11.6619434332
  C        46.6713888986       23.8599553621       12.6750672094
  C        47.2338459473       22.8150536457       13.4044186315
  C        46.7723225731       25.5869238415       10.8646788183
  C        46.7613316913       25.5573429905        9.4429153648
  C        47.2612472233       24.4422240451        8.6994443350
  C        14.8602932099        8.5706072647        8.7035366805
  C        14.8915599558        8.5969820272       11.5151648230
  C        49.1130751328       21.2033965510        2.1504117774
  C        48.5276231107       22.3646479654        2.8776968305
  C        49.2669974257       23.0257372480        3.8702476378
  C        48.6906135411       24.0602435372        4.6017383266
  C        47.3600197884       24.4565995047        4.3638367499
  C        46.6393926055       23.8112510580        3.3407552286
  C        47.2130044662       22.7753762189        2.6089658840
  C        46.7216083536       25.5316277412        5.1548266639
  C        46.7334614928       25.5280971155        6.5765203372
  C        47.2489144417       24.4288900226        7.3328927772
  C        40.6271136881       17.1377644540        7.3299554599
  C        40.6516916674       17.1591327074        4.5209613569
  C        11.8828557448       14.0865472801        2.2905368232
  C        12.4721609447       12.9106311059        2.9947284614
  C        11.7146024505       12.1774287679        3.9207874046
  C        12.2811496231       11.0949616827        4.5892495991
  C        13.6199780665       10.7212497551        4.3574783457
  C        14.3579775633       11.4367528953        3.3966391191
  C        13.7925663167       12.5179175537        2.7239150677
  C        14.2536196913        9.6245221983        5.1279113125
  C        14.2524260359        9.6445355104        6.5497579205
  C        13.7423679181       10.7534031916        7.2968333225
  C        22.5128048152        3.2451006526       13.7480392089
  C        23.2287795441        4.3506559328       13.0490699151
  C        24.2276029443        4.0706337460       12.1047162366
  C        24.8555187875        5.1099059338       11.4226868419
  C        24.5003278060        6.4518395757       11.6645613934
  C        23.5300336046        6.7235014804       12.6464066000
  C        22.8976633999        5.6860393635       13.3269312232
  C        25.1037715161        7.5588840083       10.8869264651
  C        25.0715301624        7.5517127271        9.4652277403
  C        24.3733004412        6.5485247644        8.7206079073
  C        38.3034236206       31.9287689528       13.8435295657
  C        37.5764304999       30.8373437854       13.1336878357
  C        36.6188393739       31.1375403101       12.1529107672
  C        36.0055854694       30.1146179606       11.4346662222
  C        36.3348880560       28.7663796082       11.6759889963
  C        37.2625133351       28.4736759110       12.6934058728
  C        37.8800923318       29.4952466309       13.4101290681
  C        35.7371780958       27.6718965058       10.8786360728
  C        35.7720440430       27.6850832707        9.4573196504
  C        36.4774018154       28.6881111591        8.7204477268
  C        25.6863033820        8.6250824757        8.7432445494
  C        25.7013524440        8.6350815688       11.5552041477
  C        38.3291080034       31.9620158432        2.1612749478
  C        37.6089203332       30.8876281272        2.9028652370
  C        36.6830272086       31.1939968007        3.9117590251
  C        36.0758279718       30.1736607049        4.6412647026
  C        36.3802693592       28.8217776174        4.3849457081
  C        37.2832929040       28.5254295945        3.3456862899
  C        37.8927839808       29.5421832926        2.6177317530
  C        35.7761482354       27.7203356031        5.1687629532
  C        35.7918070126       27.7100374413        6.5906625995
  C        36.4866435576       28.7002100699        7.3538894355
  C        46.1355485219       26.6207907159        7.2866353698
  C        46.0876252574       26.5799425391        4.4787477503
  C        22.4604790903        3.2549988095        2.2620741877
  C        23.1542614325        4.3634236510        2.9847697614
  C        24.1581067891        4.0771489296        3.9234968259
  C        24.7855859357        5.1072413561        4.6197727772
  C        24.4286798898        6.4524419845        4.3992593662
  C        23.4480661378        6.7321005302        3.4287895531
  C        22.8160926223        5.7022981121        2.7330260445
  C        25.0572755020        7.5514283844        5.1732198136
  C        25.0484280314        7.5470226100        6.5959653523
  C        24.3603886983        6.5474029823        7.3538375377
  C        26.6227919412       17.8595271951       13.7799554814
  C        25.3155714563       17.9029994439       13.0537781956
  C        25.0555064343       18.9008057014       12.1006757264
  C        23.8430835543       18.9206702285       11.4133440766
  C        22.8533625243       17.9460762972       11.6573235403
  C        23.1101958437       16.9710281739       12.6394117902
  C        24.3247398128       16.9456786114       13.3240493391
  C        21.5794434528       17.9318265569       10.8936881987
  C        21.5789129599       17.9090097378        9.4713022817
  C        22.7839405799       17.7842834166        8.7101066422
  C        34.4252560442       17.2226347873       13.9129217270
  C        35.7134514106       17.1565400374       13.1666249193
  C        35.8960700927       16.2107630946       12.1452824449
  C        37.0783666015       16.1910450048       11.4097080593
  C        38.1091896481       17.1140741417       11.6758056970
  C        37.9273644613       18.0382377781       12.7231246918
  C        36.7435881016       18.0648344668       13.4554967831
  C        39.3653313936       17.1211462605       10.8920703809
  C        39.3647001287       17.1502287067        9.4701872702
  C        38.1611761413       17.2866371641        8.7095824697
  C        20.3321190614       17.9263090211        8.7632069879
  C        20.3547777573       17.9353752119       11.5765016929
  C        34.4719956024       17.2430597259        2.1873657755
  C        35.7752345441       17.1621550295        2.9059843175
  C        35.9694056052       16.2067139635        3.9147634009
  C        37.1552445425       16.1885283420        4.6432731223
  C        38.1740035400       17.1258957439        4.3836431799
  C        37.9853050163       18.0546413048        3.3424541755
  C        36.7981231911       18.0780910350        2.6163145144
  C        39.4184817919       17.1498153635        5.1822029926
  C        39.3918307036       17.1665244812        6.6036702400
  C        38.1737451041       17.2925270450        7.3430985527
  C        35.1649290866       26.6285450259        7.2942611910
  C        35.1833758672       26.6515321739        4.4852172145
  C        26.5683480019       17.8214037930        2.3329432133
  C        25.2542188764       17.8728425082        3.0365061630
  C        24.9922832322       18.8758126324        3.9820794064
  C        23.7744667907       18.9017178441        4.6554920149
  C        22.7899139291       17.9245138424        4.4071226154
  C        23.0458440806       16.9472313340        3.4281514729
  C        24.2642298900       16.9191128791        2.7529656401
  C        21.5272723053       17.9044501576        5.1812194145
  C        21.5524406778       17.8933533745        6.6027038529
  C        22.7714859574       17.7765752733        7.3438463084
  C        14.0461427580       17.8284406284        2.2942745548
  C        15.3502675689       17.8845063301        3.0207467972
  C        15.6065777283       18.8868980937        3.9692441475
  C        16.8152244309       18.9069904127        4.6628395760
  C        17.8017272704       17.9275355499        4.4297581088
  C        17.5500547667       16.9490600009        3.4494969728
  C        16.3407822064       16.9243656967        2.7576595942
  C        19.0711713347       17.9103774409        5.1983125347
  C        19.0709635164       17.9057113501        6.6208185936
  C        17.8644208106       17.8054869557        7.3826176324
  C        46.8053974904       17.2199196742        2.1657272184
  C        45.5176598677       17.1617647310        2.9149973343
  C        45.3143280992       16.1896892861        3.9067864546
  C        44.1344734086       16.1754575263        4.6460524507
  C        43.1276916087       17.1332238686        4.4152303498
  C        43.3287055930       18.0851871603        3.3973176774
  C        44.5092928472       18.1036690833        2.6593837145
  C        41.8738977340       17.1468803669        5.2027749067
  C        41.8759224722       17.1483938998        6.6247636192
  C        43.0827205687       17.2411718929        7.3868284360
  C        20.3182028262       17.9170836276        7.3283823268
  C        20.2948476881       17.8930277975        4.5152913273
  C        46.7827871871       17.2295505458       13.8854358457
  C        45.4767375945       17.1196322189       13.1750703173
  C        45.2594032084       16.1253630408       12.2089358640
  C        44.0694949472       16.0972929398       11.4854729439
  C        43.0661714895       17.0599097615       11.7109495840
  C        43.2729353480       18.0215985497       12.7177600146
  C        44.4642269573       18.0567038846       13.4358065347
  C        41.8205969398       17.0865364764       10.9118806139
  C        41.8488613216       17.1158064980        9.4908866965
  C        43.0699326711       17.2233144243        8.7533304709
  C        46.1533828992       26.6372652269        8.7211763130
  C        46.1623740773       26.6560256752       11.5308267954
  C        14.0457379377       17.8315653080       13.7036942864
  C        15.3675235917       17.9053467576       13.0134386136
  C        15.6422655769       18.9204417355       12.0849137640
  C        16.8717665914       18.9569139650       11.4307032986
  C        17.8544273202       17.9774896622       11.6792184941
  C        17.5866087788       16.9913818278       12.6460394879
  C        16.3591024891       16.9543763202       13.3036726707
  C        19.1219045024       17.9515552920       10.9101201608
  C        19.0973612420       17.9255642782        9.4886284460
  C        17.8772951653       17.8144837811        8.7486029711
  C        28.8052777112       14.0886320440        2.3945408382
  C        28.1907919464       12.9164548991        3.0806294322
  C        28.9046566899       12.1897862875        4.0450662204
  C        28.3027720573       11.1157981333        4.6953743226
  C        26.9731228578       10.7464209623        4.4071400360
  C        26.2818738508       11.4541397669        3.4074895282
  C        26.8815952955       12.5276818386        2.7543379660
  C        26.3016196517        9.6683622206        5.1677093197
  C        26.2819040565        9.6996064464        6.5883423049
  C        26.7695716863       10.8210133034        7.3315408089
  C        32.1784982480       21.2401376298        2.1511525816
  C        32.7742919684       22.4054702077        2.8674653544
  C        32.0346818499       23.0734415413        3.8553440699
  C        32.6093616865       24.1105527221        4.5830674521
  C        33.9393544048       24.5069715576        4.3441255199
  C        34.6612589036       23.8572434106        3.3251323609
  C        34.0891995689       22.8146775431        2.5990779638
  C        34.5729441656       25.5790601749        5.1444975030
  C        34.5725265956       25.5453539161        6.5660297357
  C        34.0701181870       24.4267092227        7.3032413378
  C        25.6791986518        8.6191371751        7.3087832764
  C        25.6713615781        8.6131511550        4.4955530494
  C        32.1032819573       21.2267016932       13.8780595796
  C        32.6983019413       22.3717816949       13.1295950483
  C        31.9758969919       23.0159935135       12.1131518522
  C        32.5614353758       24.0431820188       11.3770562323
  C        33.8832075615       24.4554664739       11.6374909302
  C        34.5887563687       23.8223100526       12.6788816581
  C        34.0083234388       22.7900160885       13.4109541274
  C        34.5272140243       25.5348820984       10.8544410708
  C        34.5488070368       25.5230295335        9.4325208132
  C        34.0584826790       24.4165925624        8.6698077253
  C        40.6131297282       17.1249482136        8.7644350053
  C        40.5879897085       17.1051418386       11.5739869076
  C        28.7222534521       14.1010141866       13.7764323585
  C        28.1173688098       12.9532389271       13.0392164898
  C        28.8433952850       12.2744350883       12.0478612063
  C        28.2650263845       11.2079856971       11.3635668597
  C        26.9454485161       10.7965657149       11.6409844626
  C        26.2380930721       11.4646924957       12.6580351369
  C        26.8149673153       12.5289665659       13.3473147319
  C        26.3041163927        9.7017312121       10.8752119711
  C        26.2843014059        9.7169585239        9.4536225793
  C        26.7676933063       10.8306267330        8.6969979628
  C        18.1354166277        3.1810061156        2.3222570308
  C        17.4060671538        4.2782170385        3.0208423691
  C        16.3905535038        3.9998422936        3.9485838281
  C        15.7428123355        5.0398069628        4.6120844142
  C        16.0944944328        6.3835546526        4.3721991552
  C        17.0835988901        6.6530917721        3.4081423730
  C        17.7327061451        5.6157639749        2.7430858231
  C        15.4701948553        7.4912567162        5.1352401256
  C        15.4855831313        7.4906177371        6.5569522345
  C        16.1872414284        6.4970841038        7.3101402686
  C        42.9459577418       31.8594633189        2.0780289308
  C        43.6462898651       30.7718336386        2.8219384681
  C        44.5919672541       31.0931003752        3.8079047170
  C        45.1976284957       30.0875213537        4.5555489712
  C        44.8710398057       28.7344702868        4.3408037368
  C        43.9450980580       28.4201809764        3.3276730286
  C        43.3363311180       29.4253459063        2.5796314097
  C        45.4885718495       27.6551623076        5.1440107584
  C        45.4928962481       27.6809290265        6.5656954177
  C        44.8059530988       28.6890694449        7.3123201811
  C        14.8565453317        8.5630784929        7.2693066549
  C        14.8748188277        8.5629697385        4.4566381230
  C        42.9465323135       31.9615467667       13.8038382644
  C        43.6917889363       30.8854831401       13.0904403689
  C        44.6563996958       31.1913911159       12.1181331323
  C        45.2779222438       30.1718034312       11.4004261400
  C        44.9541570813       28.8214704275       11.6380488847
  C        44.0207109849       28.5238051921       12.6488738610
  C        43.3924470173       29.5405609232       13.3610524839
  C        45.5631684559       27.7240868433       10.8527783059
  C        45.5334849304       27.7174518274        9.4314793591
  C        44.8272691759       28.7077420883        8.6785033657
  C        35.1539399918       26.6164791225        8.7289727802
  C        35.1325213438       26.5961737562       11.5385405364
  C        18.1485368981        3.2469661129       13.7014273595
  C        17.4298542702        4.3437795147       12.9922531089
  C        16.4148058635        4.0525134036       12.0685045864
  C        15.7664917263        5.0831443300       11.3931237575
  C        16.1209620766        6.4284059606       11.6160343340
  C        17.1121209984        6.7117725713       12.5735362567
  C        17.7598082486        5.6828625828       13.2532895821
  C        15.4905096891        7.5241145363       10.8435740786
  C        15.4965527152        7.5075331901        9.4224377756
  C        16.1934374619        6.5059039841        8.6757486005
  H        10.6721785486       12.4657390912       11.8996035159
  H        11.6942799299       10.5508761664       10.6577544933
  H        15.3914470665       11.1684676832       12.7670978466
  H        14.3510169671       13.0713595531       14.0123349719
  H        13.3756046711       11.6309389612        9.1962036398
  H        50.3229853034       22.7489387381       11.9822798232
  H        49.3197749535       24.6233799075       10.6762324803
  H        45.6417354822       24.1603705680       12.8579105129
  H        46.6626543917       22.2894348722       14.1661192951
  H        47.6297307486       23.5758363917        9.2411581281
  H        14.8717206423        8.5881616196       12.6034692977
  H        50.2871965351       22.7032091527        4.0648672081
  H        49.2690951475       24.5759988128        5.3649720337
  H        45.6097973043       24.1080690109        3.1520655324
  H        46.6519966494       22.2528180515        1.8378036002
  H        47.6076018650       23.5517329558        6.8019968688
  H        40.6607330310       17.1199802273        3.4334073797
  H        48.6867438588       14.0948809717       15.7947748568
  H        10.6811025751       12.4664590914        4.0981085385
  H        11.6892607516       10.5245264021        5.3018427651
  H        15.3933966505       11.1587967714        3.2107127647
  H        14.3648735687       13.0872582009        1.9953360974
  H        13.3752852145       11.6218956159        6.7581649091
  H        47.9301866302       14.2173881489        1.7161394542
  H        47.7798587959       14.3724321371       14.4895126180
  H        49.0834727607       18.5524142519        2.8723353145
  H        10.4155191919       14.1343528588        0.0037286390
  H        24.4895712026        3.0320547620       11.9151462175
  H        25.6299634497        4.8917761796       10.6904841963
  H        23.2480613677        7.7564211989       12.8397513387
  H        22.1262799252        5.8869320359       14.0663853819
  H        23.8172739578        5.7887795077        9.2621169681
  H        36.3801221227       32.1799424336       11.9554274212
  H        35.2628246259       30.3508951430       10.6758743380
  H        37.5244485734       27.4354760144       12.8867519798
  H        38.6222628394       29.2771893330       14.1743878444
  H        37.0419668802       29.4380606698        9.2668131209
  H        25.7431293026        8.6164328014       12.6427678645
  H        36.4603231157       32.2377127181        4.1217714123
  H        35.3525978634       30.4165681734        5.4166084782
  H        37.5300207402       27.4857086217        3.1411362846
  H        38.6129365469       29.3185410930        1.8344824133
  H        37.0593923447       29.4590145488        6.8284961803
  H        46.1088917465       26.5871953127        3.3907094164
  H        44.6683302718       35.1161481496       15.8088143690
  H        24.4371837732        3.0389949572        4.0888323867
  H        25.5679640191        4.8790047056        5.3404554643
  H        23.1617224889        7.7665648512        3.2502423146
  H        22.0430431427        5.9144857191        1.9980847020
  H        23.7937695593        5.7873601136        6.8236819205
  H        44.9541279997       34.3905527481        1.7002590824
  H        44.9021386241       34.2070107226       14.4853422863
  H        40.6661207758       33.2090156184        2.8581778565
  H        23.1505899609        1.9576259503        0.0101447621
  H        25.8162744328       19.6573559830       11.9199347740
  H        23.6448135194       19.7017404741       10.6822358333
  H        22.3582524443       16.2097391914       12.8371210916
  H        24.5329581501       16.1792243746       14.0670300881
  H        23.7241189794       17.6631842651        9.2401766154
  H        35.0977011279       15.5027125583       11.9338398492
  H        37.2162733226       15.4501264178       10.6252428328
  H        38.7145906944       18.7592893034       12.9333240844
  H        36.5875841413       18.7936826203       14.2474900439
  H        37.2201305370       17.4131880010        9.2367493279
  H        20.3619139769       17.9769020284       12.6642942880
  H        35.1713581705       15.4998938646        4.1300014837
  H        37.3018739543       15.4452474297        5.4237803383
  H        38.7655645716       18.7847473297        3.1376562898
  H        36.6302155910       18.8147238127        1.8342183276
  H        37.2422304303       17.4220257608        6.7997667554
  H        35.1497303314       26.6813699801        3.3977969201
  H        28.5063366372       21.0685766384       15.9732143970
  H        25.7547454046       19.6273690096        4.1729687825
  H        23.5711325643       19.6834147651        5.3842255043
  H        22.2935955025       16.1862760366        3.2306264607
  H        24.4786484271       16.1521011933        2.0126100485
  H        23.7024300337       17.6504403803        6.7989034372
  H        29.0087980426       21.7140874602        1.7625480092
  H        29.1717380836       21.7328907023       14.6297747665
  H        32.1221953422       18.5599144677        2.9941449630
  H        27.3754517831       19.0262469229        0.0877030714
  H        14.8481751276       19.6459597753        4.1475701166
  H        17.0102608171       19.6906732308        5.3917963672
  H        18.3012216013       16.1847901377        3.2607226728
  H        16.1348441288       16.1557568662        2.0164979098
  H        16.9217983473       17.6893082326        6.8556213423
  H        46.0977662376       15.4583408798        4.0910660245
  H        43.9772436467       15.4132506555        5.4060464560
  H        42.5595054632       18.8327439559        3.2148566830
  H        44.6803697669       18.8530738983        1.8901506221
  H        44.0257575136       17.3570873277        6.8602569196
  H        20.2879894928       17.9245398191        3.4271905204
  H        46.0391200579       15.3896378677       12.0253285124
  H        43.9052443090       15.3265991820       10.7354962059
  H        42.5033928525       18.7688947814       12.8997680202
  H        44.6445926870       18.8197306485       14.1890313165
  H        44.0031820734       17.3244284083        9.2997039032
  H        46.1991816176       26.6824979126       12.6182758714
  H        52.7410266156       21.0625813442        0.1997705217
  H        14.8823170482       19.6745696803       11.8923267559
  H        17.0834938987       19.7470327519       10.7134838221
  H        18.3363849446       16.2285975979       12.8457723476
  H        16.1370989740       16.1800213884       14.0339450818
  H        16.9443212029       17.7051769292        9.2932833405
  H        52.3222607063       21.6731463297       14.2891993429
  H        52.0130344659       21.7018994021        1.5007845527
  H        49.0663842300       18.6071974135       13.1992197877
  H        13.2474131721       19.0165532624       15.9722231760
  H        29.9271273804       12.4827422429        4.2727577939
  H        28.8577726302       10.5497391673        5.4403595933
  H        25.2546199883       11.1786999005        3.1777134698
  H        26.3455806822       13.0959428269        1.9981427760
  H        27.1180962943       11.6941903363        6.7882121741
  H        31.0142830798       22.7526241557        4.0496271155
  H        32.0314344427       24.6270110977        5.3462295742
  H        35.6909189245       24.1537128032        3.1358684060
  H        34.6527169314       22.2863277198        1.8335056531
  H        33.7150240737       23.5572206930        6.7572525973
  H        25.7050469409        8.5900151540        3.4077333732
  H        30.9589976387       22.6929444129       11.9034308518
  H        31.9934619726       24.5439921940       10.5961375601
  H        35.6124222946       24.1280504367       12.8850063012
  H        34.5587407416       22.2792987610       14.1976827900
  H        33.6952679115       23.5389228980        9.1967525010
  H        40.5788760990       17.0544868659       12.6611363605
  H        32.5207539254       14.1457891783        0.2872085936
  H        29.8615034094       12.5891801168       11.8276482792
  H        28.8374232594       10.6744157256       10.6078170873
  H        25.2170805209       11.1606045428       12.8793441153
  H        26.2663585238       13.0587540660       14.1224780300
  H        27.1124545424       11.7122190223        9.2291733675
  H        33.2801183667       14.1567210861       14.4045486706
  H        33.4079082822       14.4122423100        1.6239123834
  H        32.1709960769       18.5832068831       13.2200938878
  H        30.2215560626       14.1898590940        0.0776167873
  H        16.1186260545        2.9633307427        4.1351275143
  H        14.9534762363        4.8204013180        5.3278620248
  H        17.3657569878        7.6859984424        3.2147824103
  H        18.5144867222        5.8184288599        2.0149613561
  H        16.7538483504        5.7397729438        6.7766475681
  H        44.8284468261       32.1401504818        3.9820078184
  H        45.9376298500       30.3412246943        5.3113751947
  H        43.6822984150       27.3781269802        3.1576148504
  H        42.5996729876       29.1900006397        1.8150073190
  H        44.2306696933       29.4368929882        6.7740209404
  H        14.8509056343        8.5461362495        3.3684209239
  H        44.8999980003       32.2340594172       11.9266834024
  H        46.0248581734       30.4130281222       10.6472190144
  H        43.7638151721       27.4840673730       12.8404903731
  H        42.6460294530       29.3177187679       14.1195672218
  H        44.2688390596       29.4707013082        9.2130659435
  H        35.0851146695       26.6111331958       12.6257761862
  H        36.6050746024       35.1339691702        0.1858582212
  H        16.1438197521        3.0129357806       11.8986539770
  H        14.9742592936        4.8562913860       10.6829350734
  H        17.3953944694        7.7472687878       12.7506432188
  H        18.5425011992        5.8933162523       13.9782504933
  H        16.7648962032        5.7556809904        9.2141912125
  H        36.2782489136       34.4827565443       14.2678235108
  H        36.3806872813       34.2093249997        1.5049865406
  H        40.5805762047       33.2025772671       13.1482775140
  H        17.4708608946        1.9475790149       15.9689544144
  H        28.7710607452       19.0373487688        4.4422812466
  H        29.7888082183       19.8873312723       11.6955744831
  H        31.9809694264       16.2261712846       11.1752270040
  H        31.0468548705       15.5209056394        4.5392489212
  H        28.3055975318       17.4372901018        7.0057943175
  H        29.2359419266       15.3255189667        6.5952867891
  H        31.7893183480       20.1123393435        9.4009945779
  H        33.1780577139       17.2123411656        9.7164513353
  H        28.8724335337       17.0446436646        9.4311812770
  H        18.8533814393        0.8689830614        4.3403278307
  H        40.5278315668       35.2289889622       11.9469112329
  H        42.3246030781       34.4194592109       11.5850769636
  H        22.0878486244        0.6916041775        4.3570395835
  H        11.5969516268       18.7130773794        4.3874278578
  H        52.2648421104       18.4308531226       11.6723036561
  H        49.2552622362       16.4768619992       11.5791863187
  H        10.1501199394       15.7980662634        4.2979504886
  H        50.8498137590       17.6924362677       11.9492289049
  H        10.0460684098       17.3943569651        4.0571146857
  H        20.2147610353        0.0021897836        4.0471032142
  H        39.1835429373       36.1244306830       11.6814693486
 Ni        30.8568598947       18.1115453176       10.6604386801
 Ni        31.2378467330       16.2314128280        8.0821242371
 Ni        30.0110800163       19.0400228331        7.9913218625
 Ni        30.1831417800       17.4295148253        5.4902471300
  O        10.6498934409       14.3651637867       13.4807014897
  O        12.6131376901       14.6575548049       14.5787723268
  O        49.1479107753       16.8459591614       15.9845880636
  O        50.3502527302       20.9359269805       13.6430028243
  O        48.3485262444       20.5933264483       14.6608167853
  O        11.0514569793       17.0539465348       14.4954926997
  O        50.3209519656       20.8816679375        2.4119158713
  O        48.3467171312       20.5867619659        1.3321720847
  O        49.5436702082       18.2484542328        2.0733188677
  O        12.3590589573       18.6245845545        0.0047752008
  O        48.6932526194       14.1486293352       14.7461358016
  O         8.2098537326       14.2103938216        1.3276466628
  O        10.7353703178       14.5067558364        2.6694291874
  O        12.5718073381       14.5828570898        1.3335806754
  O        22.8451255194        2.0439521954       13.4819427091
  O        21.6058836334        3.5927054097       14.5841535265
  O        42.0582394502       34.1374264773       15.9737413250
  O        37.9817418816       33.1368246661       13.5671174373
  O        39.2185167001       31.5762008423       14.6618663188
  O        20.3084336898        1.0395211182       14.4968816308
  O        38.0245797359       33.1855552187        2.4203985396
  O        39.2193734564       31.5839519352        1.3312798393
  O        40.6522975993       33.7693784053        2.0653276361
  O        18.2556058830        1.3765115427        0.0018557445
  O        44.6221847748       35.1005851289       14.7536240885
  O        24.2054071580        0.0000244049        1.3258898257
  O        22.7529079634        2.0572613723        2.5886512717
  O        21.6242521189        3.5957263309        1.3472432161
  O        27.4952765718       18.7513166117       13.4937545024
  O        26.7659971355       16.9289237454       14.6483903272
  O        30.6363355902       19.3504110949        0.0801897955
  O        33.5456046305       16.3311340294       13.6524390719
  O        34.2745457133       18.1820336530       14.7410133952
  O        29.5790297487       17.0625954601       14.5663676869
  O        33.6084533116       16.3298906234        2.4206932622
  O        34.3024748930       18.2460882872        1.4127074310
  O        31.6499826715       18.3137421520        2.1814599723
  O        30.3251734316       15.1558563828        0.0921543290
  O        28.5545799486       21.0287516050       14.8999159068
  O        28.5143887668       20.9512826915        1.4171263770
  O        27.4587076894       18.6741658416        2.6703438626
  O        26.6928284946       16.9276082666        1.4214246987
  O        13.1488219336       18.6929540911        2.5926538685
  O        13.9194715782       16.9162032648        1.4101866073
  O        50.5959047198       19.3501712519        0.0254009622
  O        47.6833391874       16.3272017769        2.4225189145
  O        46.9516622471       18.1757962691        1.3298330912
  O        11.0696232366       17.0155565090        1.4947901435
  O        47.6750496321       16.3357496698       13.6478023217
  O        46.9261057120       18.2357097728       14.6589451706
  O        49.5684391453       18.3177146110       13.9770847100
  O        10.3185072113       15.1002364866        0.0021546143
  O        52.6707401465       21.0278764706        1.2469317747
  O        12.1468339889       20.8911113047       14.6680673936
  O        13.1086816793       18.6135854012       13.3203612355
  O        13.9574345159       16.9870099651       14.6603083349
  O        29.9900391331       14.4368899820        2.7342042909
  O        28.0883867177       14.6547985740        1.4983436466
  O        32.1358773300       16.8526913671        0.0976241896
  O        30.9645551986       20.9493111814        2.4169932666
  O        32.9438807054       20.6015115924        1.3436469867
  O        29.5696291285       17.0754799144        1.5866876735
  O        30.8712840420       20.9468704735       13.6602279414
  O        32.8754413171       20.5832719558       14.6633530369
  O        31.6798746201       18.2472992337       13.9860920236
  O        28.2644814201       18.6361893016        0.0878153780
  O        32.4940094324       14.2141454157        1.3458202341
  O        32.4024243050       14.2129393365       14.8175754467
  O        29.8767212418       14.5106868819       13.4105258995
  O        28.0433451806       14.5859022814       14.7457184333
  O        17.8892652673        1.9666337268        2.6679008915
  O        18.9562550050        3.5271553833        1.4130711741
  O        39.1686591443       34.1388318082        0.0022733337
  O        43.2802319811       33.0589577032        2.3368105659
  O        42.0345315631       31.5064663875        1.2467314104
  O        20.3176969957        1.0367864199        1.4851938090
  O        43.2760567954       33.1825971417       13.5697633084
  O        42.0052874504       31.5841238075       14.5778743845
  O        40.5790015548       33.7749927162       13.9306037764
  O        22.3673178403        1.3846199963        0.0029553440
  O        36.6727819618       35.0998162750        1.2384260226
  O        16.4456157493        0.0642235396       14.6631254165
  O        17.9364886064        2.0433454741       13.3212863549
  O        18.9190353179        3.5931536366       14.6607666994
  O        29.8299558250       18.9886961851       12.0745411025
  O        29.7058044874       19.0486006536        4.1543554143
  O        31.3443316614       16.0429175991       11.9976084441
  O        31.2630394058       16.3547342757        4.0719802982
  O        32.2698483081       16.9295810714        9.9047981383
  O        29.7473713032       17.3654905928        9.1615670807
  O        30.1257023848       15.6731582707        6.4272885969
  O        31.4201741376       17.9559043817        6.9980745360
  O        30.8911737579       19.7921640549        9.5834133339
  O        28.6443470517       18.2439129110        6.5812718184
  O        39.4567059001       35.2437578730       11.9968903691
  O        19.1413457027        0.0045228700        3.9956185355
  O        41.9695732845       35.1727585344       12.0821165498
  O        21.6911911688       -0.0694680532        3.9010422088
  O        51.3650855890       18.6142702694       12.0003898812
  O        10.7511201351       18.7472459359        3.9099679177
  O        50.0796188206       16.4128733539       12.0866274736
  O         9.5244204273       16.4830194218        3.9963552720
 Zr         9.2960750163       16.0528423316       14.1772143449
 Zr        49.8356202728       16.0066427061        1.7516145416
 Zr        22.0734308069        0.0298836718       14.1838334653
 Zr        42.4610271425       35.1531874563        1.8060048682
 Zr        29.5919316982       19.0889675292       14.2769960158
 Zr        29.5695110883       19.1685019605        1.9170059201
 Zr        11.0374866217       19.0519666974        1.8326151919
 Zr        11.0434008076       19.1548518060       14.2460881067
 Zr        31.3406170239       16.0970506597        1.9489931009
 Zr        31.4151331663       16.0148253921       14.3323958720
 Zr        18.6012381364       -0.0012478103        1.7684248330
 Zr        18.5064634924       -0.0078330831       14.2086941384
 Zr        12.3013510434       16.3235821871       15.9851172092
 Zr        48.6154625609       18.8328477309        0.0151293617
 Zr        20.3150711333        2.4733917867       15.9850991269
 Zr        40.6437734636       32.6870783489       15.9731108222
 Zr        28.3475417301       16.3432869973        0.0890819247
 Zr        32.6168105295       18.8359369626        0.0731488339
  H        32.3111162790       18.2870039102        6.8026836168
  O        31.0174611903       14.2910099816        9.2396632386
  H        30.7522978311       15.3111085869       11.7262327041
  H        30.4015905317       13.7250656354        8.7465017610
  O        32.7960681388       15.1474673635        7.6662023741
  H        31.8789642270       14.3233951516        8.6377291027
  H        32.7246419109       14.8302488729        6.7519160889
  O        27.8856761851       20.1543260681        8.1637204009
  H        27.8086457104       19.4358189712        7.4677116511
  H        27.3620824782       19.8666176042        8.9285450864
  O        30.3688784432       20.6516157122        6.5701094397
  H        30.2087404898       20.2309011875        5.6796624298
  H        29.6110197810       21.2462836320        6.7111436655
