     572
 i =      186, E =     -4777.7004742550
  C        11.8588796627       14.0536173660       13.7362958210
  C        12.4563734471       12.8906986894       13.0180377008
  C        11.7045962801       12.1715591196       12.0765982532
  C        12.2809350383       11.1092797048       11.3843438823
  C        13.6216095902       10.7397267553       11.6118947361
  C        14.3549426279       11.4435670815       12.5850342250
  C        13.7820649442       12.5086238018       13.2764225737
  C        14.2611803162        9.6490703202       10.8385251786
  C        14.2563393484        9.6569037037        9.4168321723
  C        13.7432089185       10.7590570754        8.6629461216
  C        49.1269977076       21.2332076769       13.8745130557
  C        48.5503058009       22.4012600521       13.1474967022
  C        49.3002244636       23.0684345334       12.1663342550
  C        48.7332997537       24.1076398130       11.4332099091
  C        47.4028096704       24.5093521778       11.6619814873
  C        46.6719884645       23.8606717399       12.6757121874
  C        47.2344440830       22.8157077146       13.4049651553
  C        46.7725676839       25.5870410766       10.8647089520
  C        46.7612678798       25.5572862606        9.4429574068
  C        47.2612765224       24.4422285950        8.6994624439
  C        14.8603385094        8.5706067398        8.7035638341
  C        14.8919440402        8.5971183715       11.5151701816
  C        49.1133061061       21.2034945711        2.1504350646
  C        48.5279580492       22.3649011893        2.8776273546
  C        49.2670669397       23.0254155851        3.8707515954
  C        48.6907602065       24.0600140790        4.6021839992
  C        47.3604057407       24.4568837614        4.3637999477
  C        46.6401002091       23.8122066720        3.3400550189
  C        47.2136623535       22.7762713388        2.6083269737
  C        46.7218393166       25.5317880506        5.1548156737
  C        46.7335636032       25.5281583665        6.5765217151
  C        47.2488892345       24.4288948065        7.3329125123
  C        40.6369153418       17.1611912534        7.3263788429
  C        40.6589192117       17.1845211716        4.5175161749
  C        11.8830438044       14.0864201107        2.2905037930
  C        12.4723938080       12.9107613512        2.9948539206
  C        11.7148563814       12.1773907611        3.9208196016
  C        12.2815257525       11.0950139074        4.5892776114
  C        13.6204436046       10.7215272932        4.3576085662
  C        14.3584760831       11.4372820006        3.3969994116
  C        13.7929597107       12.5183778943        2.7242688406
  C        14.2540169166        9.6247417776        5.1279865721
  C        14.2526232089        9.6446355052        6.5498218935
  C        13.7426936713       10.7535558158        7.2969016020
  C        22.5123845583        3.2440115553       13.7482684601
  C        23.2286684252        4.3479458143       13.0491100224
  C        24.2252089345        4.0653449311       12.1031923228
  C        24.8544108717        5.1031819598       11.4208257298
  C        24.5027974117        6.4456622754       11.6644628544
  C        23.5346354124        6.7198359717       12.6476031651
  C        22.9007032363        5.6837579411       13.3283516995
  C        25.1105308696        7.5505074300       10.8884216070
  C        25.0819341518        7.5433275794        9.4670360615
  C        24.3770878753        6.5456235212        8.7212984750
  C        38.3035227530       31.9295292605       13.8439844139
  C        37.5762178255       30.8385644557       13.1342173979
  C        36.6186206839       31.1398006842       12.1538981317
  C        36.0047895979       30.1174162834       11.4356627765
  C        36.3337149404       28.7691620962       11.6769146430
  C        37.2614352781       28.4754019990       12.6938135115
  C        37.8796390447       29.4964727574       13.4105193708
  C        35.7343862699       27.6759240863       10.8797679048
  C        35.7673321487       27.6908614772        9.4585590790
  C        36.4748083552       28.6925400847        8.7217205568
  C        25.7060945311        8.6123988346        8.7469817751
  C        25.7097154512        8.6242498122       11.5589770494
  C        38.3293938689       31.9625373230        2.1612380850
  C        37.6090005282       30.8888334366        2.9034580584
  C        36.6830846526       31.1967218115        3.9117971433
  C        36.0750234827       30.1773768357        4.6418122414
  C        36.3786982663       28.8252526098        4.3862255797
  C        37.2819356061       28.5273385849        3.3476719499
  C        37.8923785118       29.5431636533        2.6192920424
  C        35.7724211680       27.7252912876        5.1700798800
  C        35.7865978331       27.7163658700        6.5919096783
  C        36.4837553534       28.7049351407        7.3552045847
  C        46.1354236132       26.6207021339        7.2866949648
  C        46.0880805425       26.5802808140        4.4787811557
  C        22.4609716990        3.2557055796        2.2627095871
  C        23.1552772996        4.3637952914        2.9856775210
  C        24.1573543835        4.0767786206        3.9262425826
  C        24.7858036604        5.1062442756        4.6225703613
  C        24.4323866162        6.4523692741        4.4008676618
  C        23.4534355455        6.7326752659        3.4287819300
  C        22.8202857992        5.7034164200        2.7329390826
  C        25.0642620750        7.5495166094        5.1752636390
  C        25.0585160209        7.5423897690        6.5980502777
  C        24.3641483986        6.5461621440        7.3546761482
  C        26.6201734729       17.8601720234       13.7789645352
  C        25.3118317733       17.9036429278       13.0535199202
  C        25.0561768592       18.8955711429       12.0938542751
  C        23.8432559724       18.9158627456       11.4074796089
  C        22.8499530739       17.9472664330       11.6585371378
  C        23.1027534464       16.9774499881       12.6469546692
  C        24.3175546423       16.9519694565       13.3309826151
  C        21.5766913881       17.9324284095       10.8942909970
  C        21.5758091475       17.9073575224        9.4718055815
  C        22.7809461340       17.7814123965        8.7109268504
  C        34.4393178595       17.1962643528       13.9175386688
  C        35.7300698420       17.1569770166       13.1660529871
  C        35.9400686529       16.1908585417       12.1697190406
  C        37.1192913703       16.1873838939       11.4296409288
  C        38.1220364416       17.1468677777       11.6699242398
  C        37.9146946190       18.0939266833       12.6902286835
  C        36.7314397070       18.1042102309       13.4252593287
  C        39.3781189325       17.1590567131       10.8872021366
  C        39.3762907600       17.1785144824        9.4661611469
  C        38.1705944542       17.3038397215        8.7065129677
  C        20.3291608881       17.9251389123        8.7634193475
  C        20.3518304938       17.9373969352       11.5765132131
  C        34.4784353867       17.2461489454        2.1851897209
  C        35.7829231161       17.1767737610        2.9076017234
  C        36.0024106682       16.1926079552        3.8826009707
  C        37.1878415832       16.1807531517        4.6121062581
  C        38.1817616797       17.1518551997        4.3838715535
  C        37.9695204824       18.1106315102        3.3762582493
  C        36.7813221307       18.1279450438        2.6506810043
  C        39.4274931315       17.1745032598        5.1803939973
  C        39.4015480245       17.1866856323        6.6008858692
  C        38.1823420236       17.3054195980        7.3400007309
  C        35.1559615854       26.6371940802        7.2955035220
  C        35.1794038629       26.6565621763        4.4864539188
  C        26.5680649379       17.8243362116        2.3299674708
  C        25.2519805476       17.8706342401        3.0350944727
  C        24.9849603147       18.8781160870        3.9743271141
  C        23.7679818291       18.9013672126        4.6499280789
  C        22.7881619565       17.9178330954        4.4080548903
  C        23.0485544803       16.9361667186        3.4349841505
  C        24.2669187429       16.9101925461        2.7589158889
  C        21.5250869030       17.8983243763        5.1817515774
  C        21.5494983107       17.8889986867        6.6031431737
  C        22.7681728471       17.7728613500        7.3446804820
  C        14.0462067852       17.8285234599        2.2942155343
  C        15.3496833228       17.8842643684        3.0202697385
  C        15.6057739945       18.8859357042        3.9696399236
  C        16.8142198392       18.9051427102        4.6632860043
  C        17.8005316542       17.9255858557        4.4296405615
  C        17.5491324117       16.9482784681        3.4481463766
  C        16.3401753129       16.9243296237        2.7560850728
  C        19.0693547393       17.9073121187        5.1984362970
  C        19.0682942499       17.9041046169        6.6208272176
  C        17.8614865010       17.8056822815        7.3824504419
  C        46.8077628566       17.2207704803        2.1648360301
  C        45.5205944235       17.1661742770        2.9138796551
  C        45.3144028555       16.1946061679        3.9050560225
  C        44.1347723521       16.1859752963        4.6442097370
  C        43.1335311118       17.1488360561        4.4122357914
  C        43.3373161058       18.1003332425        3.3950480532
  C        44.5175692557       18.1131463874        2.6574035083
  C        41.8810072507       17.1681465157        5.1993078361
  C        41.8849014689       17.1704460618        6.6206546447
  C        43.0928294647       17.2626426893        7.3813405912
  C        20.3152835928       17.9147749494        7.3286413565
  C        20.2930683032       17.8873981608        4.5155251895
  C        46.7859721622       17.2315169065       13.8851125868
  C        45.4814209959       17.1288795476       13.1720653685
  C        45.2599604052       16.1360140480       12.2059948393
  C        44.0713445428       16.1168070589       11.4805606033
  C        43.0758152894       17.0874332861       11.7048755970
  C        43.2865928010       18.0483328364       12.7110596499
  C        44.4763803308       18.0741768557       13.4310877077
  C        41.8313955595       17.1206109341       10.9063199565
  C        41.8596877170       17.1446978048        9.4858303890
  C        43.0808998793       17.2476080291        8.7477162655
  C        46.1532594708       26.6371895710        8.7212426768
  C        46.1626095881       26.6561495194       11.5308495559
  C        14.0457229139       17.8318838694       13.7038879729
  C        15.3666931340       17.9063514448       13.0140589538
  C        15.6397864973       18.9207186560       12.0842194547
  C        16.8688386989       18.9575406785       11.4295817479
  C        17.8524068320       17.9792907080       11.6791090573
  C        17.5863657320       16.9943701669       12.6476466464
  C        16.3592997786       16.9568639228       13.3056964571
  C        19.1192694164       17.9530976422       10.9098010204
  C        19.0942962647       17.9261646631        9.4884859934
  C        17.8742400076       17.8154357301        8.7484097147
  C        28.8107001074       14.0927124207        2.3990340307
  C        28.1976344588       12.9172543228        3.0857229138
  C        28.9246679462       12.1684726164        4.0228973616
  C        28.3258708412       11.0927656132        4.6741332361
  C        26.9861587652       10.7418175852        4.4114479841
  C        26.2809465874       11.4704569403        3.4371177095
  C        26.8774986047       12.5465604640        2.7847117968
  C        26.3181724754        9.6609938531        5.1722998654
  C        26.3091053838        9.6854858913        6.5932749951
  C        26.8170839161       10.7963843299        7.3390208756
  C        32.1760510321       21.2413990784        2.1497937180
  C        32.7733480489       22.4074217583        2.8690991314
  C        32.0250451058       23.0897118572        3.8404909692
  C        32.5977684655       24.1280720441        4.5689945366
  C        33.9341370349       24.5121911238        4.3456777260
  C        34.6648611045       23.8490210779        3.3421150356
  C        34.0944401598       22.8050041761        2.6160874105
  C        34.5653008062       25.5864249763        5.1457390530
  C        34.5605478997       25.5559791359        6.5671062284
  C        34.0499529704       24.4413256347        7.3045884152
  C        25.6985956688        8.6083277415        7.3123586106
  C        25.6793170113        8.6117822392        4.4989349799
  C        32.1033908066       21.2252101433       13.8784364218
  C        32.6988671894       22.3724531725       13.1288614487
  C        31.9650604162       23.0371371013       12.1342675145
  C        32.5484329853       24.0654659319       11.3973474663
  C        33.8791637034       24.4600153724       11.6380261284
  C        34.5961610448       23.8084348184       12.6596525860
  C        34.0176234507       22.7741708946       13.3910495412
  C        34.5207325728       25.5416656870       10.8554863389
  C        34.5369229141       25.5333585428        9.4338320433
  C        34.0378975788       24.4308961947        8.6710727946
  C        40.6238483646       17.1523136060        8.7601315308
  C        40.5996696356       17.1465293161       11.5694970793
  C        28.7470864981       14.0655948878       13.8157411447
  C        28.1360567847       12.9182134161       13.0768996075
  C        28.8751691545       12.2196952097       12.1102504548
  C        28.2965421998       11.1626246136       11.4114145967
  C        26.9625885203       10.7778877244       11.6545886709
  C        26.2401518110       11.4645335272       12.6481382381
  C        26.8175609387       12.5221568194       13.3486147359
  C        26.3224373029        9.6863739019       10.8816878703
  C        26.3125979532        9.6984495918        9.4598861103
  C        26.8166978867       10.8037940262        8.7048420245
  C        18.1353367039        3.1811124104        2.3221887577
  C        17.4061504989        4.2783518761        3.0208355286
  C        16.3903196574        4.0000214820        3.9482473725
  C        15.7427107788        5.0400227197        4.6118100254
  C        16.0947694730        6.3837307011        4.3722388085
  C        17.0842539151        6.6532198963        3.4085714820
  C        17.7332469119        5.6158652918        2.7434453753
  C        15.4703784351        7.4913906724        5.1352740474
  C        15.4856628468        7.4906717090        6.5569835404
  C        16.1871175041        6.4969796011        7.3101447558
  C        42.9459645597       31.8595862363        2.0780169835
  C        43.6463634286       30.7719045273        2.8219963885
  C        44.5917055718       31.0932626669        3.8082255081
  C        45.1974737237       30.0876895234        4.5558171743
  C        44.8711417344       28.7346140601        4.3408984202
  C        43.9455423951       28.4202906022        3.3274732633
  C        43.3366365200       29.4254226378        2.5794967786
  C        45.4886718336       27.6552809275        5.1440773955
  C        45.4927745405       27.6808618813        6.5657711532
  C        44.8056595258       28.6889086046        7.3123749755
  C        14.8565566352        8.5630757661        7.2693490285
  C        14.8752669276        8.5632481183        4.4566773638
  C        42.9465320717       31.9616604835       13.8039226457
  C        43.6918449392       30.8855247359       13.0904632370
  C        44.6563042605       31.1914186844       12.1180373127
  C        45.2778044926       30.1718162574       11.4003030046
  C        44.9541853763       28.8214928431       11.6380964833
  C        44.0208915990       28.5238553610       12.6490583441
  C        43.3926468869       29.5406289408       13.3612406979
  C        45.5631989772       27.7240992254       10.8528251680
  C        45.5332627702       27.7173283153        9.4315344438
  C        44.8268993609       28.7075125385        8.6785607475
  C        35.1451421590       26.6248834324        8.7301148026
  C        35.1300741258       26.6000520072       11.5398841259
  C        18.1486564937        3.2470682096       13.7014040719
  C        17.4300172757        4.3438687641       12.9922172733
  C        16.4146583371        4.0526143611       12.0687987018
  C        15.7663925706        5.0832680625       11.3934138469
  C        16.1212384967        6.4284819928       11.6160017979
  C        17.1127700215        6.7118422708       12.5731017371
  C        17.7604097413        5.6829161031       13.2528696647
  C        15.4907115666        7.5241632023       10.8435701000
  C        15.4965604276        7.5075082367        9.4224442748
  C        16.1933197654        6.5058052068        8.6757474915
  H        10.6723598435       12.4654419417       11.8998073668
  H        11.6946195126       10.5505641651       10.6580069126
  H        15.3920945296       11.1692678860       12.7665304748
  H        14.3516446844       13.0720885752       14.0115826043
  H        13.3762150616       11.6311761505        9.1962774610
  H        50.3228992235       22.7483116124       11.9815392288
  H        49.3197672211       24.6227759344       10.6755309412
  H        45.6425735469       24.1616199786       12.8590168648
  H        46.6635551859       22.2906243537       14.1672570818
  H        47.6298868796       23.5758910194        9.2411584617
  H        14.8724533268        8.5884576929       12.6034790800
  H        50.2870869575       22.7024947037        4.0657001532
  H        49.2691319326       24.5753626709        5.3657780142
  H        45.6107920086       24.1096771346        3.1508287144
  H        46.6529713913       22.2543209239        1.8365289270
  H        47.6077928391       23.5518258936        6.8020167704
  H        40.6667993968       17.1490106286        3.4298401263
  H        48.6870951052       14.0950416018       15.7949293265
  H        10.6813223715       12.4663245687        4.0980706784
  H        11.6897269070       10.5244788827        5.3018533355
  H        15.3940282762       11.1596684152        3.2113312507
  H        14.3654404503       13.0879565963        1.9960131214
  H        13.3759433257       11.6222055955        6.7582672250
  H        47.9303058293       14.2182671505        1.7160408274
  H        47.7801295361       14.3737589447       14.4901936488
  H        49.0848607417       18.5529291400        2.8728004470
  H        10.4163555757       14.1342437826        0.0037553653
  H        24.4841001627        3.0261315434       11.9130857094
  H        25.6272716964        4.8841073151       10.6872681205
  H        23.2562539929        7.7535269958       12.8420076523
  H        22.1309410674        5.8858929612       14.0691277603
  H        23.8151653915        5.7896279314        9.2619697871
  H        36.3805967949       32.1824344811       11.9568696792
  H        35.2618702336       30.3539251324       10.6771115017
  H        37.5226746436       27.4369812514       12.8868579432
  H        38.6219849831       29.2782830926       14.1745545278
  H        37.0415885700       29.4407365324        9.2681789346
  H        25.7446548607        8.6074470712       12.6467909244
  H        36.4611190932       32.2407773955        4.1208582636
  H        35.3516348478       30.4211218260        5.4167447879
  H        37.5278074190       27.4872760621        3.1438668442
  H        38.6127005709       29.3187613009        1.8364216305
  H        37.0584468598       29.4622691966        6.8298008645
  H        46.1095686748       26.5877282033        3.3907464510
  H        44.6683286476       35.1162459915       15.8088691338
  H        24.4344483617        3.0383204303        4.0929648678
  H        25.5665489241        4.8767762218        5.3446087896
  H        23.1692561450        7.7674574165        3.2485895868
  H        22.0486809544        5.9170368248        1.9968802570
  H        23.7916516317        5.7911877680        6.8236676456
  H        44.9539820177       34.3904726964        1.7003203126
  H        44.9018964100       34.2068235180       14.4856372600
  H        40.6662448166       33.2093770873        2.8583544613
  H        23.1504076646        1.9580513006        0.0104070778
  H        25.8221742758       19.6438068181       11.9023111190
  H        23.6492970914       19.6919482610       10.6700574264
  H        22.3480562736       16.2201840702       12.8495687237
  H        24.5238929945       16.1896094508       14.0786825893
  H        23.7210954703       17.6618864332        9.2414599553
  H        35.1647349419       15.4497299028       11.9895798204
  H        37.2830408205       15.4297373045       10.6662939829
  H        38.6816161549       18.8423038989       12.8792774493
  H        36.5537203999       18.8484375306       14.1982167013
  H        37.2316555547       17.4274070329        9.2383902643
  H        20.3589557962       17.9804341843       12.6642562488
  H        35.2247368632       15.4540476725        4.0629088506
  H        37.3589921189       15.4150106495        5.3656356373
  H        38.7321836730       18.8654901549        3.1961579580
  H        36.5932764621       18.8849830442        1.8929519722
  H        37.2525265692       17.4285221360        6.7921548535
  H        35.1487912447       26.6845368842        3.3988937143
  H        28.5015208614       21.0742052323       15.9715372690
  H        25.7434663832       19.6364311003        4.1552308823
  H        23.5601976647       19.6864641839        5.3737995322
  H        22.2997263142       16.1706480123        3.2420362622
  H        24.4849759224       16.1406677080        2.0221702350
  H        23.6985718864       17.6465331362        6.7991184257
  H        29.0226671559       21.7094741384        1.7558835159
  H        29.1744697646       21.7302461996       14.6282769421
  H        32.0963894813       18.5512123687        2.9884835406
  H        27.3675470882       19.0214762139        0.0842247784
  H        14.8474740668       19.6449531011        4.1484785601
  H        17.0095088444       19.6880345125        5.3929781439
  H        18.3004434751       16.1843414782        3.2587271212
  H        16.1343481073       16.1565739269        2.0140456156
  H        16.9188272438       17.6896193789        6.8555806271
  H        46.0952689331       15.4603724485        4.0887371203
  H        43.9732583565       15.4251358022        5.4046435144
  H        42.5712246011       18.8512237131        3.2133432611
  H        44.6933963191       18.8614573985        1.8882573455
  H        44.0354638844       17.3761811652        6.8535621567
  H        20.2866713794       17.9176727506        3.4274131215
  H        46.0350447622       15.3948809059       12.0245115093
  H        43.9018693262       15.3475367657       10.7303104642
  H        42.5221665810       18.8013636792       12.8908813447
  H        44.6622151639       18.8357066940       14.1844037315
  H        44.0144012587       17.3484729989        9.2937142518
  H        46.1997116541       26.6828512906       12.6182817510
  H        52.7413739371       21.0626601413        0.1997975461
  H        14.8789621603       19.6737899710       11.8911412016
  H        17.0798247384       19.7468622165       10.7112818701
  H        18.3374737175       16.2331054323       12.8481815123
  H        16.1384514184       16.1833559300       14.0371807434
  H        16.9410798978       17.7069894787        9.2929487143
  H        52.3228259436       21.6734634533       14.2890523301
  H        52.0135887067       21.7023983467        1.5007977378
  H        49.0680569266       18.6078525513       13.1988548882
  H        13.2480560134       19.0160109658       15.9723351868
  H        29.9577832199       12.4433781262        4.2241363515
  H        28.8908969379       10.5104167456        5.3988244090
  H        25.2459025661       11.2088416665        3.2268910480
  H        26.3313780483       13.1303504885        2.0477502627
  H        27.1814155628       11.6637930997        6.7970231535
  H        30.9977612913       22.7803959111        4.0180401633
  H        32.0127136179       24.6573046052        5.3180655941
  H        35.6989595537       24.1371104160        3.1641782587
  H        34.6632119324       22.2669517643        1.8611429883
  H        33.6896232707       23.5760674529        6.7556835403
  H        25.7068634524        8.5939233044        3.4108408476
  H        30.9384066568       22.7308517692       11.9471439273
  H        31.9720773009       24.5829878126       10.6334783793
  H        35.6261785807       24.1023080250       12.8511035327
  H        34.5753556304       22.2493202461       14.1632451056
  H        33.6681542849       23.5572216821        9.2000519901
  H        40.5901789123       17.1020873224       12.6568793803
  H        32.5091093094       14.1444878310        0.2659207415
  H        29.9046120070       12.5195450773       11.9270897621
  H        28.8775276876       10.6157357580       10.6718547779
  H        25.2079144994       11.1802979425       12.8422694289
  H        26.2571599575       13.0681808702       14.1038923414
  H        27.1797213264       11.6769112665        9.2390767006
  H        33.3105943043       14.2270589961       14.4623974376
  H        33.4094751621       14.4166167298        1.6042448678
  H        32.1429474575       18.5276072743       13.2468186070
  H        30.2152307835       14.1850100015        0.0837031573
  H        16.1181847341        2.9635340396        4.1346271899
  H        14.9531905462        4.8207038988        5.3274098347
  H        17.3668787011        7.6860647833        3.2155758008
  H        18.5154458756        5.8185003138        2.0157642220
  H        16.7537843256        5.7397293852        6.7766367209
  H        44.8279395819       32.1403567891        3.9824194372
  H        45.9372649608       30.3414775099        5.3118248408
  H        43.6830466423       27.3781934688        3.1572268383
  H        42.6002273156       29.1900910860        1.8146337662
  H        44.2303524181       29.4367152164        6.7740723524
  H        14.8516436872        8.5465812953        3.3684535512
  H        44.8997300277       32.2341144113       11.9265097076
  H        46.0246124711       30.4130875868       10.6469818649
  H        43.7641727500       27.4840999041       12.8407948787
  H        42.6463392828       29.3178436950       14.1198760354
  H        44.2684682522       29.4704366706        9.2131686158
  H        35.0865765478       26.6125392215       12.6273161355
  H        36.6051790354       35.1341244087        0.1856963400
  H        16.1434255149        3.0130605363       11.8991824188
  H        14.9739978114        4.8564910728       10.6833853355
  H        17.3965304146        7.7472743116       12.7497942632
  H        18.5434614911        5.8933660167       13.9774405241
  H        16.7648144251        5.7556108819        9.2141816107
  H        36.2786036664       34.4825760010       14.2679568528
  H        36.3809529707       34.2092109535        1.5047128458
  H        40.5807210817       33.2030073315       13.1482511164
  H        17.4708563265        1.9479502178       15.9689969828
  H        29.0381286531       19.3210969747        4.5018880229
  H        29.9290944429       19.7287707543       11.6458443055
  H        31.9027900196       15.7678541756       11.6023298490
  H        31.3209862487       15.6375343187        4.5228439012
  H        28.0737866167       18.0517768401        6.7316229797
  H        29.6847052351       15.1173415256        6.4999663998
  H        31.7411605834       19.9112078964        9.6350221966
  H        33.1650971557       16.8332465873        9.6193943266
  H        28.9073389765       16.7305697385        9.2670747373
  H        18.8531306635        0.8688875437        4.3403341229
  H        40.5281024408       35.2289283409       11.9468565918
  H        42.3244993644       34.4193160116       11.5849458983
  H        22.0873959050        0.6918345553        4.3569234205
  H        11.5967789537       18.7130365881        4.3877967310
  H        52.2650042287       18.4311082360       11.6720691714
  H        49.2547387656       16.4770054516       11.5796061848
  H        10.1504003927       15.7982603036        4.2978103404
  H        50.8501612680       17.6925385366       11.9490464618
  H        10.0462751203       17.3945509736        4.0570231868
  H        20.2143250745        0.0020492251        4.0471086715
  H        39.1838118160       36.1245052065       11.6813613479
  H        32.3115137547       18.4987232501        6.8472008599
 Ni        30.8224674922       17.6949970516       10.9062418391
 Ni        31.2819043795       16.3521063615        7.9980648982
 Ni        30.0115751428       18.8448783486        8.1600465824
 Ni        30.2686153847       17.5199845250        5.3290725700
  O        10.6499606005       14.3651244443       13.4807363775
  O        12.6131592468       14.6574881264       14.5787999684
  O        49.1482066576       16.8458067800       15.9845879404
  O        50.3503409386       20.9357804147       13.6428878687
  O        48.3486216218       20.5934088657       14.6607751357
  O        11.0517932628       17.0537627958       14.4955875904
  O        50.3210275814       20.8817020820        2.4119925569
  O        48.3467207611       20.5868090916        1.3322943992
  O        49.5439016093       18.2484057623        2.0733465798
  O        12.3593914412       18.6246860049        0.0048152067
  O        48.6933113527       14.1485717497       14.7461744392
  O         8.2099021274       14.2103395092        1.3275235603
  O        10.7354147961       14.5066890026        2.6694490633
  O        12.5718850888       14.5828231327        1.3336078912
  O        22.8443749637        2.0425879696       13.4822775827
  O        21.6056312255        3.5921992406       14.5844181035
  O        42.0583581555       34.1375668307       15.9738855240
  O        37.9818959552       33.1374265601       13.5672645729
  O        39.2185429492       31.5763473575       14.6620069484
  O        20.3084154327        1.0396444263       14.4970460515
  O        38.0247087800       33.1859319688        2.4202550816
  O        39.2193980130       31.5839968042        1.3312817770
  O        40.6522984373       33.7694348603        2.0653177144
  O        18.2555542647        1.3768042519        0.0018618261
  O        44.6222664650       35.1005562142       14.7536780752
  O        24.2054021835       -0.0000191718        1.3258866847
  O        22.7529249484        2.0575111522        2.5888664725
  O        21.6244487657        3.5960462275        1.3478369458
  O        27.4923796912       18.7510636655       13.4941439924
  O        26.7618465304       16.9291010265       14.6472812698
  O        30.6377205501       19.3554990032        0.0795224933
  O        33.5912207994       16.2738534825       13.6646001104
  O        34.2748208150       18.1689088818       14.7326110234
  O        29.5720791915       17.0584261980       14.5706719952
  O        33.6224445734       16.3288662695        2.4174239600
  O        34.3060508413       18.2475027211        1.4115122203
  O        31.6537597233       18.3165319981        2.1570680030
  O        30.3181668849       15.1504659259        0.0958548970
  O        28.5537395645       21.0299708234       14.8997137788
  O        28.5122507189       20.9544036838        1.4167904008
  O        27.4536150244       18.6775433696        2.6655110094
  O        26.6918555949       16.9259344025        1.4208919990
  O        13.1483602870       18.6929156705        2.5924875946
  O        13.9190960603       16.9162093201        1.4100398750
  O        50.5965958272       19.3503838603        0.0254761788
  O        47.6837870546       16.3269127379        2.4223363087
  O        46.9528309446       18.1761586096        1.3288549773
  O        11.0699245831       17.0154715263        1.4947148934
  O        47.6756545702       16.3356632561       13.6477721507
  O        46.9284515263       18.2359240909       14.6602765374
  O        49.5689506597       18.3177151096       13.9771704013
  O        10.3187818465       15.1000808947        0.0021664661
  O        52.6708060357       21.0279621318        1.2469070867
  O        12.1468544585       20.8912544109       14.6681451781
  O        13.1080386953       18.6135696468       13.3205699091
  O        13.9570954071       16.9870103563       14.6604014842
  O        29.9938375198       14.4433536866        2.7401123839
  O        28.0894200370       14.6523605685        1.5023819845
  O        32.1411919481       16.8497633666        0.0963611582
  O        30.9636063496       20.9525979864        2.4145822724
  O        32.9442644198       20.6048561999        1.3433674390
  O        29.5666220776       17.0707482817        1.5808174403
  O        30.8720808725       20.9474478368       13.6585694501
  O        32.8768165375       20.5863167011       14.6639990466
  O        31.6875696823       18.2545772920       14.0581904740
  O        28.2565211144       18.6318089384        0.0840446610
  O        32.4934497070       14.2132070493        1.3384700736
  O        32.4073207793       14.2111911042       14.8206075711
  O        29.9179151624       14.4353764940       13.4882594698
  O        28.0375110251       14.5875477797       14.7481087818
  O        17.8893033416        1.9666799501        2.6679203183
  O        18.9562640044        3.5271770740        1.4131103482
  O        39.1686401723       34.1389320585        0.0022818162
  O        43.2802511544       33.0589786152        2.3368191446
  O        42.0345813339       31.5063758207        1.2468053118
  O        20.3176894629        1.0368976211        1.4851899550
  O        43.2760684548       33.1825868590       13.5697295413
  O        42.0053015653       31.5840876869       14.5778671804
  O        40.5790095675       33.7751173049       13.9307717943
  O        22.3673801200        1.3846865461        0.0030634645
  O        36.6727385948       35.0998401409        1.2383438664
  O        16.4456019433        0.0643143082       14.6631633776
  O        17.9364515264        2.0433797834       13.3212944548
  O        18.9190313585        3.5931842469       14.6607898414
  O        29.8648337256       18.8978887427       12.1526046940
  O        29.7795836264       18.9141282794        4.0141920032
  O        31.3421057660       16.3357422870       12.1632598007
  O        31.3475213043       16.4703840824        4.0099125925
  O        32.2337396275       16.5635940176        9.6474692896
  O        29.7855928180       17.1460497023        9.2364737969
  O        30.4599694100       15.6940089853        6.4139097681
  O        31.4345656162       18.0871654067        6.9206317865
  O        30.8772180058       19.4844767330        9.7423487047
  O        28.9345319511       18.4748371915        6.5885094841
  O        39.4568300167       35.2437938907       11.9968149783
  O        19.1409549304        0.0043693120        3.9956235529
  O        41.9694680908       35.1725783526       12.0820171628
  O        21.6910803064       -0.0695312580        3.9010786400
  O        51.3651883636       18.6142654130       12.0002523273
  O        10.7510763676       18.7472222535        3.9100510658
  O        50.0792588570       16.4128031903       12.0866807725
  O         9.5244805939       16.4830825469        3.9962885167
 Zr         9.2975953457       16.0526708620       14.1774107078
 Zr        49.8370853867       16.0064979155        1.7513839234
 Zr        22.0734387728        0.0303332315       14.1838193712
 Zr        42.4610435249       35.1539224356        1.8062044861
 Zr        29.5886317262       19.0851429570       14.2871476110
 Zr        29.5659701293       19.1606623943        1.8742924660
 Zr        11.0387105202       19.0518468912        1.8328467763
 Zr        11.0447605028       19.1546950463       14.2457511913
 Zr        31.3491631016       16.1078999102        1.8883828870
 Zr        31.3889943174       16.0068705552       14.3037370566
 Zr        18.6013232342       -0.0007329646        1.7682866725
 Zr        18.5066723860       -0.0071556594       14.2086971407
 Zr        12.3028757496       16.3235748712       15.9851589028
 Zr        48.6178517323       18.8333162738        0.0152264843
 Zr        20.3154909271        2.4741069450       15.9853574426
 Zr        40.6439939700       32.6877318120       15.9732118796
 Zr        28.3390712605       16.3334268372        0.0833539056
 Zr        32.6211683777       18.8335641556        0.0712699543
