     571
 i =      204, E =     -4761.6503119860
  C        11.8586907658       14.0534614355       13.7365097655
  C        12.4561827963       12.8904660394       13.0182837546
  C        11.7045875932       12.1717750885       12.0763657492
  C        12.2809635173       11.1095952977       11.3839863357
  C        13.6214340056       10.7395777693       11.6119292615
  C        14.3544660550       11.4428692160       12.5857011556
  C        13.7815961652       12.5078233561       13.2772543205
  C        14.2610248789        9.6489929872       10.8385053347
  C        14.2563982338        9.6569725540        9.4168108611
  C        13.7431990359       10.7590688365        8.6628934031
  C        49.1267729827       21.2332779779       13.8745605895
  C        48.5500451540       22.4011713982       13.1474563808
  C        49.3001350147       23.0686066322       12.1665798225
  C        48.7332084249       24.1077500245       11.4333926654
  C        47.4026177026       24.5092950017       11.6619134266
  C        46.6715884416       23.8602825792       12.6752797645
  C        47.2340348973       22.8153735188       13.4046206323
  C        46.7723887777       25.5869958711       10.8646398594
  C        46.7614707475       25.5574201012        9.4428814104
  C        47.2614137394       24.4423317266        8.6993908173
  C        14.8604200008        8.5706957147        8.7035328838
  C        14.8917738000        8.5970175596       11.5151324031
  C        49.1132122209       21.2034978009        2.1505333776
  C        48.5278788290       22.3648145634        2.8777141096
  C        49.2671599125       23.0256200856        3.8705300786
  C        48.6908440144       24.0602051836        4.6019444563
  C        47.3603979038       24.4569140204        4.3637653895
  C        46.6399126531       23.8118823230        3.3403715004
  C        47.2134460102       22.7759359695        2.6086408117
  C        46.7219724615       25.5319019700        5.1547699495
  C        46.7337309344       25.5282645355        6.5764659466
  C        47.2491554458       24.4290463653        7.3328425165
  C        40.6351421418       17.1597639035        7.3325872419
  C        40.6548021956       17.1866681325        4.5238159426
  C        11.8829121586       14.0864589184        2.2905260449
  C        12.4722102995       12.9106024447        2.9947037598
  C        11.7147535400       12.1775728546        3.9209989455
  C        12.2813462485       11.0951475663        4.5894539909
  C        13.6200971229       10.7212727108        4.3574983839
  C        14.3579632244       11.4366056387        3.3964364563
  C        13.7925505225       12.5177501439        2.7236962454
  C        14.2537559163        9.6245865862        5.1279295949
  C        14.2525648958        9.6446275375        6.5497649009
  C        13.7426381466       10.7535402698        7.2968507865
  C        22.5114590157        3.2438964571       13.7480416833
  C        23.2259492766        4.3485788107       13.0480829743
  C        24.2229102980        4.0674351801       12.1022861923
  C        24.8500041138        5.1062909195       11.4195159498
  C        24.4955028546        6.4480917323       11.6626139675
  C        23.5267510636        6.7208142653       12.6455221561
  C        22.8950947863        5.6837679751       13.3267600957
  C        25.1017538696        7.5537636858       10.8868509615
  C        25.0761638366        7.5458700413        9.4653889211
  C        24.3738532995        6.5468002456        8.7191499572
  C        38.3015560953       31.9308799685       13.8450610045
  C        37.5684040967       30.8429365159       13.1374341545
  C        36.6052116703       31.1494648672       12.1640788217
  C        35.9838396364       30.1310359311       11.4470870725
  C        36.3116666540       28.7813858039       11.6815361451
  C        37.2450327858       28.4821915170       12.6917357478
  C        37.8700637974       29.4993890739       13.4080897448
  C        35.7065190688       27.6919486275       10.8838043514
  C        35.7339735682       27.7098546144        9.4624510330
  C        36.4383873600       28.7136302335        8.7257576066
  C        25.7008245772        8.6149883160        8.7457550221
  C        25.6973907714        8.6290488236       11.5579868888
  C        38.3287322212       31.9626693747        2.1617369112
  C        37.6057392293       30.8914325937        2.9049037590
  C        36.6746500082       31.2038134699        3.9073096680
  C        36.0610411967       30.1880696186        4.6376071850
  C        36.3644435416       28.8344856541        4.3892232099
  C        37.2739561671       28.5320467674        3.3572850237
  C        37.8894912854       29.5443428858        2.6280233261
  C        35.7521129218       27.7378769943        5.1734362820
  C        35.7571377578       27.7334346757        6.5955093402
  C        36.4490260542       28.7251766666        7.3592893180
  C        46.1357205097       26.6208975972        7.2865940578
  C        46.0879628751       26.5802129219        4.4786998759
  C        22.4608781594        3.2556272071        2.2624767895
  C        23.1553661051        4.3640753114        2.9850141364
  C        24.1585368658        4.0775417372        3.9244971058
  C        24.7869522774        5.1073737169        4.6203768831
  C        24.4321878196        6.4532156041        4.3993350710
  C        23.4522172787        6.7330503238        3.4281798376
  C        22.8192209603        5.7034572607        2.7327027918
  C        25.0632360726        7.5507704680        5.1738363500
  C        25.0569153943        7.5437390937        6.5965706073
  C        24.3628463529        6.5468934934        7.3525357050
  C        26.6188074907       17.8608017667       13.7771745177
  C        25.3127725672       17.9079009666       13.0506527987
  C        25.0437913020       18.9174000400       12.1124861044
  C        23.8313981136       18.9369936170       11.4252446573
  C        22.8496214120       17.9520384026       11.6562226910
  C        23.1138779928       16.9654229921       12.6250256120
  C        24.3287895806       16.9394510152       13.3085623435
  C        21.5761996079       17.9397868392       10.8917744958
  C        21.5770501790       17.9258750541        9.4692388771
  C        22.7835227711       17.8126370559        8.7085494058
  C        34.4429104269       17.1917720049       13.9214684931
  C        35.7385761724       17.1409784688       13.1836078770
  C        35.9350536844       16.1886495393       12.1714062656
  C        37.1134265402       16.1837639815       11.4305396086
  C        38.1268833961       17.1284113668       11.6839743089
  C        37.9338980025       18.0584052711       12.7233876731
  C        36.7521944074       18.0704616571       13.4602983021
  C        39.3795527784       17.1445800489       10.8959541437
  C        39.3761099093       17.1724188879        9.4744984751
  C        38.1703559358       17.3072682558        8.7167929447
  C        20.3305428401       17.9410532971        8.7605280464
  C        20.3515909642       17.9372301964       11.5742384439
  C        34.4783257497       17.2471256390        2.1883151456
  C        35.7801854101       17.1789667701        2.9129754088
  C        35.9922761357       16.2044314825        3.8994986911
  C        37.1767986153       16.1937708393        4.6303994108
  C        38.1774393239       17.1558438700        4.3923203981
  C        37.9714771362       18.1052115613        3.3742483787
  C        36.7842636401       18.1220299702        2.6474005309
  C        39.4236686022       17.1782618848        5.1880525225
  C        39.3988976050       17.1902359006        6.6088757741
  C        38.1814062597       17.3138328856        7.3500860573
  C        35.1245371268       26.6550299836        7.2990239652
  C        35.1639783613       26.6664683476        4.4898757557
  C        26.5715964598       17.8291242496        2.3270514593
  C        25.2544169600       17.8769938706        3.0307056982
  C        24.9853344293       18.8927132736        3.9605510565
  C        23.7683608615       18.9200575368        4.6361438381
  C        22.7907575167       17.9319593107        4.4042864060
  C        23.0532251493       16.9415898022        3.4405761325
  C        24.2713112284       16.9120550272        2.7637550174
  C        21.5277197238       17.9155214408        5.1788076026
  C        21.5519957454       17.9115860643        6.6003299214
  C        22.7713407573       17.8054289724        7.3422296474
  C        14.0463162860       17.8291105144        2.2936339989
  C        15.3507916611       17.8870818060        3.0187788105
  C        15.6067358416       18.8911971856        3.9655398331
  C        16.8156345439       18.9132228476        4.6584080686
  C        17.8025911967       17.9339851172        4.4263846215
  C        17.5514611661       16.9540228081        3.4475132843
  C        16.3419132885       16.9274074101        2.7562987888
  C        19.0716762267       17.9189451305        5.1951393791
  C        19.0705661435       17.9176732761        6.6175500609
  C        17.8637182960       17.8166407341        7.3788140917
  C        46.8062375443       17.2208159078        2.1655507954
  C        45.5188136533       17.1662618332        2.9149283433
  C        45.3121813560       16.1950635566        3.9066600190
  C        44.1325607795       16.1863744142        4.6461978863
  C        43.1304190278       17.1488728948        4.4151789337
  C        43.3345762120       18.0997838480        3.3972029987
  C        44.5147893629       18.1126242980        2.6590118541
  C        41.8780254914       17.1684529511        5.2037762522
  C        41.8826637006       17.1687093789        6.6254058135
  C        43.0912597823       17.2583487007        7.3851248585
  C        20.3173894053       17.9328034992        7.3256313278
  C        20.2956704418       17.8997231459        4.5126353184
  C        46.7862312269       17.2302767871       13.8862204941
  C        45.4820782798       17.1244997024       13.1747927751
  C        45.2639335277       16.1315387660       12.2080323622
  C        44.0755541818       16.1092406618       11.4827078625
  C        43.0773126207       17.0765706987       11.7084233959
  C        43.2846849939       18.0370866100       12.7157150061
  C        44.4742914844       18.0662727676       13.4355542403
  C        41.8329661880       17.1077982224       10.9105490081
  C        41.8598741843       17.1358349196        9.4902857529
  C        43.0803951153       17.2404079512        8.7514493859
  C        46.1534682728       26.6373085032        8.7211395714
  C        46.1623987779       26.6560816010       11.5307866099
  C        14.0453448871       17.8314893968       13.7034470390
  C        15.3662920437       17.9054090339       13.0121883727
  C        15.6401637208       18.9219159017       12.0849655037
  C        16.8690288786       18.9593294477       11.4298367188
  C        17.8517250199       17.9793647683       11.6760636363
  C        17.5846031280       16.9914766543       12.6412927055
  C        16.3577275375       16.9536087055       13.2999842458
  C        19.1191444681       17.9562013622       10.9071330202
  C        19.0954263280       17.9356983195        9.4855434232
  C        17.8757708657       17.8247263577        8.7448035722
  C        28.8087256587       14.0914016065        2.3961277516
  C        28.1946636081       12.9179628148        3.0832437523
  C        28.9183976559       12.1769913263        4.0291578345
  C        28.3199273157       11.1013111736        4.6801642907
  C        26.9836047702       10.7435133847        4.4100326309
  C        26.2815674071       11.4650259030        3.4278050021
  C        26.8780166844       12.5405210906        2.7745042758
  C        26.3157233592        9.6631871548        5.1713017635
  C        26.3061333816        9.6878129859        6.5924744631
  C        26.8142900714       10.7982322002        7.3386858987
  C        32.1785478118       21.2454322547        2.1494228397
  C        32.7710549355       22.4135575358        2.8666109545
  C        32.0184875201       23.0927572232        3.8371216036
  C        32.5855920087       24.1329083916        4.5668392807
  C        33.9210229107       24.5218094786        4.3467922531
  C        34.6562649805       23.8614014578        3.3444283111
  C        34.0914128206       22.8156380969        2.6165642161
  C        34.5461928674       25.5980905205        5.1487517073
  C        34.5329990555       25.5714022144        6.5705252180
  C        34.0202716732       24.4579209814        7.3084739569
  C        25.6955074350        8.6103643741        7.3111469497
  C        25.6776588956        8.6134738908        4.4978322825
  C        32.1031993159       21.2309523532       13.8840252380
  C        32.6899316726       22.3866436141       13.1436841276
  C        31.9491795412       23.0478610474       12.1515640234
  C        32.5258979969       24.0769601046       11.4109099156
  C        33.8565101188       24.4755181954       11.6455887197
  C        34.5795715876       23.8282245205       12.6658821552
  C        34.0080894580       22.7928922647       13.4010680306
  C        34.4929976507       25.5577421495       10.8597269929
  C        34.5046534549       25.5512236958        9.4377187053
  C        34.0056589675       24.4486626956        8.6751307041
  C        40.6230924220       17.1466705684        8.7664874735
  C        40.6025441720       17.1292936008       11.5755016598
  C        28.7377103590       14.0645717488       13.8157502572
  C        28.1278076890       12.9195988569       13.0766510301
  C        28.8674498949       12.2165822833       12.1132838020
  C        28.2868563980       11.1612242682       11.4140763849
  C        26.9511405003       10.7814788880       11.6542056490
  C        26.2283867258       11.4713946051       12.6456007212
  C        26.8070135029       12.5280748441       13.3458905649
  C        26.3111688329        9.6904825522       10.8808459106
  C        26.3056446047        9.7017517073        9.4590244484
  C        26.8123547562       10.8061201324        8.7045142939
  C        18.1354232941        3.1810085775        2.3222564647
  C        17.4061152380        4.2782728512        3.0208922446
  C        16.3903747677        3.9999226172        3.9483824287
  C        15.7426557286        5.0399137655        4.6118817396
  C        16.0946154925        6.3836138914        4.3722051445
  C        17.0839911910        6.6531345064        3.4084472948
  C        17.7330699838        5.6157832146        2.7434027503
  C        15.4702983994        7.4913151421        5.1352452050
  C        15.4856527940        7.4906950967        6.5569539824
  C        16.1872797905        6.4971203051        7.3101142065
  C        42.9458894576       31.8595284700        2.0779909068
  C        43.6462773082       30.7718749863        2.8219447141
  C        44.5918651519       31.0932297567        3.8079528778
  C        45.1976040952       30.0876983616        4.5556152637
  C        44.8711569445       28.7346286016        4.3407927032
  C        43.9452581624       28.4202570092        3.3276553245
  C        43.3364188879       29.4253870952        2.5796198603
  C        45.4887808822       27.6553484058        5.1439760453
  C        45.4930019877       27.6810146791        6.5656703011
  C        44.8058935661       28.6890565227        7.3122864137
  C        14.8566445129        8.5631632044        7.2693141462
  C        14.8749421600        8.5630311819        4.4566525760
  C        42.9464754335       31.9615619959       13.8039101945
  C        43.6917048197       30.8854377120       13.0904221113
  C        44.6563583785       31.1913659416       12.1181835460
  C        45.2778762688       30.1717843484       11.4004380785
  C        44.9540153885       28.8214634935       11.6379915076
  C        44.0204390127       28.5237760292       12.6486820998
  C        43.3921959180       29.5405409773       13.3608794674
  C        45.5630996399       27.7240838332       10.8527368110
  C        45.5334718738       27.7174512969        9.4314321161
  C        44.8271377908       28.7076797156        8.6784757773
  C        35.1114810269       26.6438740439        8.7338914034
  C        35.1051464737       26.6146997307       11.5437875104
  C        18.1485493988        3.2470359290       13.7015723237
  C        17.4299905323        4.3438873177       12.9922362781
  C        16.4147909759        4.0526171018       12.0686675891
  C        15.7665154139        5.0832511807       11.3932428013
  C        16.1212121477        6.4284684644       11.6159640080
  C        17.1125810717        6.7118476772       12.5732204934
  C        17.7602225980        5.6829366129       13.2530104036
  C        15.4907181658        7.5241688657       10.8435309199
  C        15.4966687648        7.5076019794        9.4224016825
  C        16.1935081760        6.5059435395        8.6757187147
  H        10.6725263076       12.4660596706       11.8992037358
  H        11.6947184026       10.5512622265       10.6573066048
  H        15.3913911978       11.1680338801       12.7676663947
  H        14.3509435779       13.0708362872       14.0129493183
  H        13.3760860054       11.6311469703        9.1961978010
  H        50.3228775876       22.7486527617       11.9819136257
  H        49.3197073802       24.6231087372       10.6758914765
  H        45.6420309485       24.1609138883       12.8583161287
  H        46.6629256913       22.2900097056       14.1665510645
  H        47.6298752769       23.5759250822        9.2410756762
  H        14.8720205533        8.5881866226       12.6034332370
  H        50.2872416743       22.7028574415        4.0653669931
  H        49.2692469199       24.5757646359        5.3653666933
  H        45.6104727993       24.1090464359        3.1513814489
  H        46.6525601130       22.2536956739        1.8371820890
  H        47.6078676489       23.5519009292        6.8019505285
  H        40.6611799926       17.1510261739        3.4361169738
  H        48.6869548406       14.0948392847       15.7948538583
  H        10.6813196149       12.4667360897        4.0984847555
  H        11.6895779339       10.5248367844        5.3022303542
  H        15.3933206690       11.1585554797        3.2103341499
  H        14.3648098818       13.0869790374        1.9949839520
  H        13.3757185146       11.6221119595        6.7582158188
  H        47.9301529167       14.2179327405        1.7160862111
  H        47.7800689699       14.3731996909       14.4898984059
  H        49.0840593465       18.5526818354        2.8726848278
  H        10.4159557667       14.1342854354        0.0038154546
  H        24.4838517316        3.0286235133       11.9127204302
  H        25.6234576266        4.8885209627       10.6861975942
  H        23.2460547288        7.7539963590       12.8392616085
  H        22.1249050230        5.8844311773       14.0674727781
  H        23.8121141319        5.7903194478        9.2593293653
  H        36.3686521456       32.1932589127       11.9716919767
  H        35.2364902071       30.3716529448       10.6941972330
  H        37.5051962449       27.4425157724       12.8794020899
  H        38.6163296518       29.2768929197       14.1670696031
  H        37.0029716392       29.4635244749        9.2721079033
  H        25.7298554522        8.6129998201       12.6458919441
  H        36.4524833773       32.2488283111        4.1111831753
  H        35.3331534533       30.4358695211        5.4070205431
  H        37.5202569145       27.4909891801        3.1591347603
  H        38.6137277406       29.3157786711        1.8499391076
  H        37.0229433110       29.4834924176        6.8345092616
  H        46.1093028053       26.5875755698        3.3906619163
  H        44.6682924117       35.1161631050       15.8088211681
  H        24.4364504749        3.0392277957        4.0908182628
  H        25.5685312424        4.8783877496        5.3416767731
  H        23.1669999854        7.7676436748        3.2485658051
  H        22.0467909785        5.9164730734        1.9973385457
  H        23.7920425881        5.7910217602        6.8209632509
  H        44.9538164488       34.3903132932        1.7002132351
  H        44.9017481768       34.2067617822       14.4855197120
  H        40.6658788059       33.2090279573        2.8582411035
  H        23.1505156282        1.9577080509        0.0103337539
  H        25.7934845779       19.6863332414       11.9397808376
  H        23.6283193825       19.7260419283       10.7042298606
  H        22.3675274510       16.1961549129       12.8127596379
  H        24.5431218559       16.1644622851       14.0408773274
  H        23.7248915929       17.6997865074        9.2383746119
  H        35.1453760674       15.4674827201       11.9735801774
  H        37.2651672805       15.4390903098       10.6522450704
  H        38.7093394072       18.7949893901       12.9233292935
  H        36.5847655429       18.8048280549       14.2448299996
  H        37.2316240260       17.4353113032        9.2482424734
  H        20.3582277066       17.9722998475       12.6622732644
  H        35.2095010171       15.4734868924        4.0887710325
  H        37.3416947586       15.4355348395        5.3927812780
  H        38.7384103486       18.8539269423        3.1869332139
  H        36.6020345910       18.8726826940        1.8820036022
  H        37.2510699756       17.4456654466        6.8051830552
  H        35.1405991872       26.6905094242        3.4020460082
  H        28.5098789414       21.0837751970       15.9705029679
  H        25.7430529177       19.6536010564        4.1341005347
  H        23.5592190380       19.7118501316        5.3523412598
  H        22.3061858630       16.1723689027        3.2555713029
  H        24.4903598399       16.1357111939        2.0344916061
  H        23.7031626655       17.6871101503        6.7972477425
  H        29.0064783954       21.7206073062        1.7642620431
  H        29.1525950386       21.7463326984       14.6103919738
  H        32.0937005527       18.5746446221        2.9850786481
  H        27.4041633202       19.0775970225        0.0858190085
  H        14.8477701368       19.6498653184        4.1430437498
  H        17.0105448329       19.6980755780        5.3861060454
  H        18.3031816646       16.1901176863        3.2595334822
  H        16.1361953134       16.1576459469        2.0162658934
  H        16.9214840655       17.6993598436        6.8514187236
  H        46.0928159466       15.4606657459        4.0907466134
  H        43.9719248516       15.4254251042        5.4067198988
  H        42.5686312008       18.8507804505        3.2152161716
  H        44.6894970904       18.8610457216        1.8896925332
  H        44.0335310644       17.3725563011        6.8568671137
  H        20.2893317127       17.9261378291        3.4244224784
  H        46.0415373128       15.3932494400       12.0259697176
  H        43.9081374862       15.3402507988       10.7317240525
  H        42.5174015779       18.7870441370       12.8961125159
  H        44.6578324517       18.8275755117       14.1896491248
  H        44.0144359826       17.3396125298        9.2968145742
  H        46.1991509160       26.6825843648       12.6182377608
  H        52.7410966728       21.0625953361        0.1997828844
  H        14.8801293065       19.6764503179       11.8944384106
  H        17.0804554559       19.7507073800       10.7139280740
  H        18.3344738371       16.2282610469       12.8390661641
  H        16.1361925536       16.1781324540       14.0292253571
  H        16.9426254172       17.7136997058        9.2888401114
  H        52.3221509864       21.6731886889       14.2893017097
  H        52.0130148945       21.7018984647        1.5007553733
  H        49.0672750112       18.6077478689       13.1991990451
  H        13.2474313940       19.0164264241       15.9720886006
  H        29.9475241586       12.4587877158        4.2402678201
  H        28.8828816949       10.5253248564        5.4114395840
  H        25.2490073067       11.1982624709        3.2119655740
  H        26.3342799137       13.1187698956        2.0314697023
  H        27.1812279468       11.6656937853        6.7985267458
  H        30.9927556540       22.7789192693        4.0148317993
  H        31.9969738711       24.6587653930        5.3154031357
  H        35.6899806649       24.1525409474        3.1693960793
  H        34.6646879437       22.2798024547        1.8634699726
  H        33.6630935142       23.5897782145        6.7618974366
  H        25.7058157835        8.5953872870        3.4097602724
  H        30.9234747177       22.7347261067       11.9694807759
  H        31.9454361719       24.5908493771       10.6477425319
  H        35.6096278953       24.1251950764       12.8520461764
  H        34.5719870045       22.2699002074       14.1700169240
  H        33.6379721309       23.5728020007        9.2022499450
  H        40.5952472552       17.0794037942       12.6626438608
  H        32.5202412018       14.1434826814        0.2655844597
  H        29.8998463907       12.5066791215       11.9318226559
  H        28.8680879822       10.6122848344       10.6763201831
  H        25.1950217777       11.1901113510       12.8378952318
  H        26.2463797509       13.0761367366       14.0995071005
  H        27.1767441098       11.6797298923        9.2371310386
  H        33.2954257025       14.1876405877       14.4291561017
  H        33.4096403479       14.4015482609        1.6163120986
  H        32.2623825906       18.6014988010       13.2782204565
  H        30.2228333843       14.1887372995        0.0842347108
  H        16.1183086159        2.9634099572        4.1347601491
  H        14.9531763953        4.8205401121        5.3275138352
  H        17.3664314998        7.6860043074        3.2153426331
  H        18.5151067349        5.8183888875        2.0155459849
  H        16.7538460509        5.7397934117        6.7766000123
  H        44.8281687873       32.1403151602        3.9821042759
  H        45.9375258866       30.3414546871        5.3115102926
  H        43.6825225159       27.3781891048        3.1575939573
  H        42.5997628208       29.1900307580        1.8150032664
  H        44.2305337010       29.4368178474        6.7739709805
  H        14.8510969653        8.5462001635        3.3684370325
  H        44.8999547714       32.2340489117       11.9267982305
  H        46.0248392055       30.4130219878       10.6472515705
  H        43.7634004843       27.4840449640       12.8401465656
  H        42.6456467227       29.3177158870       14.1192639032
  H        44.2685964595       29.4705524240        9.2130590116
  H        35.0665126438       26.6245923394       12.6314145252
  H        36.6051265225       35.1341855478        0.1856758824
  H        16.1437147233        3.0130308000       11.8989637168
  H        14.9741908143        4.8564111029       10.6831558245
  H        17.3961051136        7.7473083804       12.7500910341
  H        18.5431176748        5.8933436045       13.9777617087
  H        16.7649452681        5.7557126122        9.2141665198
  H        36.2786897644       34.4825534473       14.2682016952
  H        36.3809627853       34.2091734638        1.5046356626
  H        40.5800986940       33.2024626438       13.1486065321
  H        17.4706656534        1.9474041102       15.9690737437
  H        29.1958989758       19.4831391383        4.5442462074
  H        28.8167202896       18.9573987703       11.7612726860
  H        30.6902679007       15.4778895448       11.8331348704
  H        31.1266893451       15.5584153107        4.4656810096
  H        28.2410767363       18.4364291013        6.7963993487
  H        29.1715796159       15.4025715744        6.3214268526
  H        31.0357026282       19.8786816087       10.0231568313
  H        28.9280654818       16.6791333480        9.7276579813
  H        18.8541320432        0.8692431435        4.3405123225
  H        40.5280217956       35.2290265727       11.9469567991
  H        42.3239706953       34.4187834213       11.5853754352
  H        22.0879595579        0.6923214188        4.3565961015
  H        11.5969131795       18.7132303191        4.3877028793
  H        52.2647822338       18.4310912845       11.6720122353
  H        49.2553768888       16.4770229239       11.5793661914
  H        10.1508772781       15.7980620342        4.2974828953
  H        50.8499454426       17.6923417222       11.9492078842
  H        10.0464692225       17.3944410065        4.0570888736
  H        20.2155099597        0.0024685440        4.0470161567
  H        39.1837636639       36.1244133948       11.6811310447
 Ni        30.8198350312       17.6941616517       10.9924727796
 Ni        30.5635443954       16.5703431109        7.9990162121
 Ni        30.2246116399       18.9228653353        7.9992568762
 Ni        30.3047113223       17.5579954517        5.3237856383
  O        10.6499625325       14.3650826879       13.4807273027
  O        12.6131908254       14.6575610655       14.5787755644
  O        49.1481517655       16.8459440548       15.9846726586
  O        50.3502749886       20.9359298572       13.6430050892
  O        48.3485868550       20.5933679317       14.6608314884
  O        11.0517170120       17.0538958208       14.4955234859
  O        50.3210761862       20.8816602693        2.4119351101
  O        48.3468012880       20.5868340904        1.3322791443
  O        49.5437372768       18.2484451926        2.0734645547
  O        12.3590287374       18.6245626888        0.0047979779
  O        48.6932959658       14.1485049173       14.7462028083
  O         8.2098365173       14.2103737081        1.3276837360
  O        10.7353859505       14.5067327045        2.6694085450
  O        12.5718354751       14.5828618762        1.3335970960
  O        22.8444578606        2.0428203727       13.4822337729
  O        21.6053830731        3.5921614353       14.5847580525
  O        42.0582026482       34.1373492421       15.9739069379
  O        37.9817281594       33.1393488846       13.5678207911
  O        39.2178912911       31.5764434994       14.6613472176
  O        20.3084852303        1.0396933382       14.4970024841
  O        38.0250376283       33.1866404528        2.4200039424
  O        39.2188521271       31.5836086897        1.3319128091
  O        40.6523270611       33.7693617393        2.0653781747
  O        18.2553788221        1.3762784961        0.0019268951
  O        44.6222387993       35.1005207665       14.7536360881
  O        24.2054309142       -0.0000130725        1.3258857877
  O        22.7530079318        2.0576297250        2.5888361619
  O        21.6244247992        3.5960414172        1.3476898467
  O        27.4979945408       18.7528155110       13.4872855660
  O        26.7619843811       16.9379860623       14.6476048353
  O        30.6693141676       19.4065918608        0.0716832187
  O        33.5877018825       16.2779628233       13.6633916785
  O        34.2729057009       18.1709012600       14.7311929904
  O        29.5772799407       17.0687533001       14.5752433500
  O        33.6211298708       16.3299915389        2.4172471404
  O        34.3064453216       18.2477641241        1.4119698870
  O        31.6576097696       18.3139775550        2.1573610622
  O        30.3236747146       15.1546893475        0.0923448772
  O        28.5536325458       21.0334959683       14.8975935330
  O        28.5135897070       20.9578823341        1.4163412654
  O        27.4572139776       18.6791738169        2.6640035770
  O        26.6945673610       16.9288853822        1.4169041469
  O        13.1485524883       18.6930616599        2.5924649290
  O        13.9194825408       16.9162453246        1.4101750268
  O        50.5962726706       19.3503087304        0.0255878645
  O        47.6830988798       16.3272408396        2.4225452975
  O        46.9523663596       18.1761013400        1.3292926733
  O        11.0697182678       17.0155146309        1.4947861904
  O        47.6767576437       16.3353191403       13.6482092466
  O        46.9287853135       18.2356136440       14.6603735468
  O        49.5687956174       18.3177106183       13.9771658396
  O        10.3186436196       15.1001398168        0.0021974466
  O        52.6707603691       21.0279175507        1.2469224243
  O        12.1468392408       20.8911834810       14.6680778108
  O        13.1082640534       18.6136435774       13.3204387712
  O        13.9574025117       16.9870304193       14.6602098819
  O        29.9925942797       14.4407792626        2.7359737542
  O        28.0895139049       14.6539952054        1.4991432301
  O        32.1414897439       16.8598914766        0.0891446632
  O        30.9657691240       20.9552623790        2.4126025824
  O        32.9477555335       20.6041252703        1.3464959066
  O        29.5685836783       17.0761216204        1.5804292397
  O        30.8750207899       20.9457554955       13.6593561667
  O        32.8806135993       20.5838052960       14.6614835153
  O        31.6826794487       18.2565626533       13.9754459852
  O        28.2890132209       18.6778340885        0.0789760844
  O        32.4942770108       14.2129197352        1.3376585900
  O        32.4068750237       14.2087789111       14.8219253459
  O        29.9135085423       14.4353006788       13.4856720950
  O        28.0375769391       14.5889886317       14.7489995122
  O        17.8891981200        1.9666964517        2.6679558014
  O        18.9562192559        3.5272003511        1.4130945899
  O        39.1686668084       34.1388632225        0.0023173906
  O        43.2802328351       33.0589675903        2.3367985339
  O        42.0345160834       31.5064531303        1.2467463323
  O        20.3177474823        1.0367771309        1.4852760410
  O        43.2760681734       33.1825648161       13.5698094164
  O        42.0052583845       31.5841118097       14.5778759974
  O        40.5790519702       33.7749992381       13.9308219144
  O        22.3673463436        1.3845697140        0.0030551785
  O        36.6727506607       35.0998454916        1.2383563371
  O        16.4455432469        0.0644562547       14.6632724168
  O        17.9364898442        2.0434614840       13.3212468693
  O        18.9190420251        3.5931861884       14.6608304599
  O        29.7401325386       18.9681864155       12.0715505600
  O        29.8265953422       18.9771223364        3.9979864297
  O        31.2672538768       16.2022781352       12.1447951918
  O        31.3135195264       16.4000583375        4.0039438039
  O        29.8583301013       16.3944603046        9.7595046249
  O        30.0768162016       15.7548360758        6.3391851891
  O        31.5816757045       17.9380312127        6.9057301672
  O        31.2974864614       19.0517608754        9.5758054331
  O        29.1120644660       18.7687485389        6.5233075352
  O        39.4568264652       35.2438252298       11.9968499643
  O        19.1420285743        0.0048488038        3.9956118049
  O        41.9695559842       35.1726207327       12.0820541950
  O        21.6915009444       -0.0691710217        3.9011045668
  O        51.3650735086       18.6142848694       12.0003293090
  O        10.7511886712       18.7472312761        3.9100370357
  O        50.0798465776       16.4128316053       12.0865826618
  O         9.5249182918       16.4829855490        3.9963136359
 Zr         9.2968109701       16.0526956977       14.1773918030
 Zr        49.8359785563       16.0066314425        1.7515093952
 Zr        22.0732619410        0.0297677231       14.1839565772
 Zr        42.4610025090       35.1534568621        1.8060147472
 Zr        29.6081212079       19.1044836049       14.2913532083
 Zr        29.5819686140       19.1750251982        1.8741312344
 Zr        11.0378584975       19.0519935119        1.8327544303
 Zr        11.0437202907       19.1548620164       14.2459516154
 Zr        31.3557807894       16.1025726941        1.8921813321
 Zr        31.4049420843       16.0042050760       14.3052044679
 Zr        18.6012082184       -0.0012501441        1.7685161102
 Zr        18.5065925835       -0.0073829613       14.2087110655
 Zr        12.3016968574       16.3235292149       15.9852140039
 Zr        48.6165543823       18.8332327737        0.0154425865
 Zr        20.3152154916        2.4734221349       15.9855168200
 Zr        40.6434697342       32.6871624857       15.9732105828
 Zr        28.3515798406       16.3451988693        0.0905870374
 Zr        32.6342556793       18.8387345667        0.0744933048
  H        32.5452600916       18.0530718862        6.9150517768
  H        29.1007531216       19.3733788527        8.7864115197
