     571
 i =      204, E =     -4761.6364792869
  C        11.8587015374       14.0534976087       13.7364923659
  C        12.4561735393       12.8905023671       13.0182499292
  C        11.7045504095       12.1717909943       12.0763707850
  C        12.2808993028       11.1095790848       11.3840069780
  C        13.6213896887       10.7395959610       11.6119281267
  C        14.3544579458       11.4429107295       12.5856586073
  C        13.7815922184       12.5078816130       13.2771788558
  C        14.2609545444        9.6489896952       10.8384978104
  C        14.2563499227        9.6569493636        9.4167953946
  C        13.7431180314       10.7590398022        8.6628812552
  C        49.1267623231       21.2332805825       13.8745704918
  C        48.5500451799       22.4011911079       13.1474743373
  C        49.3001387114       23.0686243919       12.1666016315
  C        48.7332066754       24.1077733363       11.4334207904
  C        47.4026064448       24.5092967674       11.6619323579
  C        46.6715700972       23.8602655775       12.6752818965
  C        47.2340191591       22.8153486848       13.4046163344
  C        46.7723940844       25.5870072801       10.8646642254
  C        46.7614465585       25.5574080984        9.4429112751
  C        47.2613713469       24.4423044406        8.6994318488
  C        14.8603591763        8.5706556447        8.7035261489
  C        14.8917194411        8.5970212261       11.5151364921
  C        49.1132327730       21.2035301742        2.1504744104
  C        48.5278824700       22.3648232206        2.8776954062
  C        49.2671566881       23.0256455916        3.8705056755
  C        48.6908170466       24.0601937078        4.6019615920
  C        47.3603566876       24.4568629162        4.3637941293
  C        46.6398683441       23.8118277025        3.3404042824
  C        47.2134371223       22.7759199303        2.6086371358
  C        46.7219430689       25.5318642175        5.1547972432
  C        46.7336954024       25.5282398115        6.5764983226
  C        47.2490949051       24.4290034876        7.3328793605
  C        40.6352500542       17.1570860479        7.3310736946
  C        40.6553501157       17.1807186275        4.5222475343
  C        11.8829658778       14.0864945647        2.2905666784
  C        12.4722530172       12.9106388873        2.9947390657
  C        11.7147786973       12.1776071057        3.9210131247
  C        12.2813408346       11.0951449364        4.5894379390
  C        13.6200928916       10.7212679655        4.3574824308
  C        14.3579729724       11.4366048238        3.3964367820
  C        13.7925786917       12.5177719041        2.7237345952
  C        14.2537339482        9.6245756447        5.1279246298
  C        14.2525261780        9.6445965993        6.5497628142
  C        13.7425756404       10.7535092013        7.2968353291
  C        22.5119076185        3.2438571819       13.7483309363
  C        23.2272915583        4.3483124048       13.0489312339
  C        24.2244381736        4.0666305031       12.1034729731
  C        24.8524279620        5.1051316845       11.4210020978
  C        24.4987123589        6.4471456673       11.6640725153
  C        23.5297916903        6.7203906929       12.6466680132
  C        22.8971712772        5.6836844508       13.3275801938
  C        25.1056459360        7.5524312144       10.8882488108
  C        25.0790880158        7.5446368939        9.4668284822
  C        24.3754064455        6.5461621913        8.7210936251
  C        38.3019945613       31.9308587236       13.8449179565
  C        37.5701550401       30.8424912533       13.1367790770
  C        36.6070972132       31.1481244245       12.1630781193
  C        35.9872235050       30.1290112437       11.4457966839
  C        36.3164438105       28.7797458497       11.6804690364
  C        37.2497913787       28.4814472427       12.6909128090
  C        37.8733543158       29.4993008118       13.4075056709
  C        35.7122965471       27.6897950542       10.8829412067
  C        35.7388544442       27.7081440187        9.4616715336
  C        36.4428719270       28.7121171811        8.7248785584
  C        25.7038116631        8.6134507539        8.7468094509
  C        25.7022779804        8.6273723340       11.5590428601
  C        38.3287824048       31.9628073659        2.1615510627
  C        37.6058641368       30.8914936388        2.9045111106
  C        36.6750152589       31.2037253902        3.9071441674
  C        36.0617846496       30.1878274187        4.6374762886
  C        36.3653182925       28.8343878029        4.3886751002
  C        37.2745173222       28.5320587284        3.3564711636
  C        37.8897170361       29.5445234224        2.6272204456
  C        35.7534332258       27.7376972692        5.1729234956
  C        35.7597169800       27.7327687898        6.5949290690
  C        36.4525194763       28.7241068474        7.3584210402
  C        46.1357225888       26.6208980200        7.2866264912
  C        46.0879893251       26.5802128173        4.4787266961
  C        22.4606356335        3.2555721016        2.2626856274
  C        23.1544595789        4.3639696229        2.9858457650
  C        24.1566908951        4.0772445445        3.9262549572
  C        24.7847719707        5.1069553534        4.6225594807
  C        24.4306252840        6.4528801386        4.4010153478
  C        23.4513706530        6.7328795644        3.4291683540
  C        22.8186396463        5.7033899978        2.7333028596
  C        25.0621905721        7.5502386040        5.1752880702
  C        25.0570394864        7.5430591114        6.5980399617
  C        24.3629655925        6.5465843964        7.3544993843
  C        26.6189161398       17.8609838701       13.7764985820
  C        25.3129079873       17.9070774651       13.0501900319
  C        25.0444272739       18.9157654950       12.1110358229
  C        23.8317731412       18.9351120588       11.4242293429
  C        22.8498352447       17.9505997300       11.6564222318
  C        23.1137508904       16.9647857314       12.6261245182
  C        24.3287276413       16.9391470112       13.3094036174
  C        21.5763711658       17.9375530322       10.8921565997
  C        21.5771999510       17.9224965948        9.4696583250
  C        22.7836255109       17.8079993563        8.7090612516
  C        34.4443588505       17.1916925172       13.9233537573
  C        35.7379066144       17.1463071887       13.1814385863
  C        35.9347088647       16.1939859056       12.1693898633
  C        37.1128904992       16.1896066963       11.4282911864
  C        38.1259452348       17.1348029584       11.6813412794
  C        37.9320724322       18.0657707933       12.7196626388
  C        36.7504064553       18.0773184241       13.4567480473
  C        39.3791138849       17.1498262547       10.8941165183
  C        39.3759542743       17.1748933023        9.4726343535
  C        38.1703477067       17.3086670632        8.7144918715
  C        20.3306604666       17.9378839602        8.7610088277
  C        20.3517774979       17.9354678596       11.5746724537
  C        34.4780456724       17.2455959532        2.1893571988
  C        35.7804104609       17.1754398240        2.9121023283
  C        35.9919053340       16.2010705134        3.8989712481
  C        37.1767154236       16.1893291427        4.6292243886
  C        38.1782381437       17.1502273975        4.3902537164
  C        37.9731983877       18.0989173488        3.3713301507
  C        36.7857221602       18.1168460120        2.6450641211
  C        39.4241701307       17.1728331414        5.1862802694
  C        39.3990942822       17.1866274660        6.6070920137
  C        38.1815000751       17.3119325658        7.3477913843
  C        35.1274609110       26.6542800412        7.2985424374
  C        35.1644387773       26.6667760865        4.4894348245
  C        26.5710581508       17.8287505709        2.3274235894
  C        25.2542377177       17.8763885850        3.0310556803
  C        24.9853464943       18.8907748480        3.9624030909
  C        23.7684513851       18.9174583009        4.6380219493
  C        22.7906025259       17.9299220849        4.4048014571
  C        23.0528064363       16.9409220236        3.4395827658
  C        24.2708354070       16.9120454959        2.7627199757
  C        21.5276439582       17.9128946078        5.1793625927
  C        21.5520730796       17.9083474483        6.6008948095
  C        22.7713527525       17.8010021101        7.3427345443
  C        14.0463570701       17.8289526705        2.2937315669
  C        15.3507069347       17.8864515896        3.0191319769
  C        15.6069114018       18.8903380154        3.9660789733
  C        16.8157833919       18.9118664712        4.6590531226
  C        17.8025000721       17.9323857283        4.4269710993
  C        17.5510256128       16.9525876796        3.4480202911
  C        16.3415425690       16.9264680476        2.7566931470
  C        19.0716119088       17.9168953305        5.1957059092
  C        19.0705837014       17.9153389796        6.6181147070
  C        17.8637301626       17.8144056827        7.3793729187
  C        46.8064176329       17.2203784295        2.1652415019
  C        45.5189475984       17.1646547605        2.9141910211
  C        45.3131052508       16.1928124820        3.9054462902
  C        44.1334549592       16.1827713783        4.6448077737
  C        43.1307111845       17.1446110060        4.4139952778
  C        43.3340208099       18.0961043657        3.3964225570
  C        44.5142511909       18.1102663240        2.6583564134
  C        41.8783699597       17.1633647971        5.2024617331
  C        41.8828616239       17.1647925386        6.6240682218
  C        43.0913928205       17.2548937319        7.3838460400
  C        20.3174459244       17.9298969599        7.3261505712
  C        20.2955829634       17.8975280534        4.5131760520
  C        46.7861056647       17.2305979497       13.8858974764
  C        45.4819934580       17.1257411431       13.1740098180
  C        45.2626145875       16.1322287254       12.2080812097
  C        44.0741613913       16.1106995035       11.4827706662
  C        43.0769756265       17.0794551852       11.7073490111
  C        43.2856584150       18.0407095090       12.7136864657
  C        44.4752748469       18.0690411581       13.4336106051
  C        41.8325662892       17.1110951446       10.9094107805
  C        41.8596669115       17.1365508030        9.4890717701
  C        43.0803437667       17.2389711571        8.7502048566
  C        46.1534696541       26.6373084245        8.7211715538
  C        46.1624064886       26.6560887079       11.5308052138
  C        14.0453137654       17.8312654638       13.7033914190
  C        15.3662519747       17.9047704612       13.0121726165
  C        15.6405600965       18.9211026085       12.0848840801
  C        16.8695144926       18.9579816162       11.4298771553
  C        17.8518483982       17.9777078535       11.6763775695
  C        17.5842889904       16.9900154477       12.6416694140
  C        16.3573324915       16.9526701058       13.3001994851
  C        19.1193255865       17.9540345272       10.9075840403
  C        19.0955762088       17.9329526782        9.4860362582
  C        17.8758672403       17.8221658506        8.7453591302
  C        28.8079301992       14.0903902173        2.3969819891
  C        28.1947332779       12.9160089539        3.0827492436
  C        28.9193805186       12.1734898561        4.0267980565
  C        28.3209594307       11.0980248882        4.6781622250
  C        26.9837982537       10.7417860391        4.4100967896
  C        26.2810727160       11.4643124471        3.4290960294
  C        26.8773930179       12.5397023125        2.7755422462
  C        26.3159145149        9.6618714851        5.1719669368
  C        26.3076779095        9.6863299224        6.5931522549
  C        26.8169372173       10.7964324730        7.3390675142
  C        32.1775456392       21.2464654735        2.1515207037
  C        32.7693229750       22.4147899999        2.8679112443
  C        32.0170116326       23.0951332113        3.8378192388
  C        32.5847573117       24.1352556576        4.5669701365
  C        33.9205233279       24.5228849779        4.3468714770
  C        34.6553421630       23.8617640469        3.3446909511
  C        34.0899334057       22.8160522660        2.6174154419
  C        34.5466913734       25.5986103284        5.1485819269
  C        34.5346405015       25.5712449676        6.5702889527
  C        34.0218823209       24.4576871252        7.3081034178
  C        25.6970506016        8.6091201068        7.3122058722
  C        25.6766299906        8.6126818294        4.4988904864
  C        32.1062233244       21.2329882145       13.8867447775
  C        32.6967883129       22.3849296652       13.1433448187
  C        31.9545037630       23.0499983667       12.1550095713
  C        32.5316606444       24.0782383375       11.4136077471
  C        33.8641856537       24.4723433795       11.6444539340
  C        34.5894235993       23.8206923724       12.6603240299
  C        34.0174370044       22.7857478672       13.3958136120
  C        34.4999594298       25.5551837617       10.8589947250
  C        34.5096879851       25.5495566607        9.4371248954
  C        34.0089754872       24.4476614339        8.6747491738
  C        40.6230212985       17.1468655705        8.7649855761
  C        40.6019526335       17.1349174849       11.5740589624
  C        28.7411047599       14.0649210036       13.8152080077
  C        28.1305647974       12.9196664360       13.0763786615
  C        28.8709854298       12.2167230218       12.1135659283
  C        28.2912448880       11.1606335945       11.4146150706
  C        26.9557136106       10.7800890803       11.6546030338
  C        26.2322733396       11.4699038789       12.6455290172
  C        26.8100429481       12.5273108553       13.3455054553
  C        26.3160753233        9.6886091539       10.8815608338
  C        26.3096960688        9.6998486003        9.4597468621
  C        26.8161781148       10.8040999236        8.7049018614
  C        18.1354548271        3.1810154550        2.3222977205
  C        17.4061381381        4.2782813182        3.0209054229
  C        16.3904424773        3.9999262814        3.9484373401
  C        15.7427191301        5.0399130002        4.6119245119
  C        16.0946353948        6.3836210612        4.3722313887
  C        17.0840096796        6.6531403465        3.4084665966
  C        17.7331033495        5.6157930864        2.7434232768
  C        15.4703144621        7.4913205679        5.1352634179
  C        15.4856535228        7.4906817513        6.5569663934
  C        16.1872842511        6.4971250862        7.3101324017
  C        42.9459594819       31.8595282251        2.0779612216
  C        43.6463374967       30.7718820760        2.8219356443
  C        44.5918885879       31.0932299067        3.8079846538
  C        45.1976357974       30.0876998203        4.5556298388
  C        44.8712062220       28.7346361211        4.3407941815
  C        43.9453754894       28.4202568993        3.3276028168
  C        43.3365226477       29.4253832546        2.5795750989
  C        45.4887937850       27.6553507322        5.1439942640
  C        45.4930187045       27.6810171322        6.5656902545
  C        44.8059467917       28.6890768553        7.3123134855
  C        14.8566061402        8.5631311886        7.2693086313
  C        14.8749358682        8.5630177424        4.4566611726
  C        42.9464254235       31.9615499376       13.8038628579
  C        43.6916819956       30.8854560609       13.0903751196
  C        44.6563229302       31.1913873947       12.1181250851
  C        45.2778801129       30.1718005627       11.4004303180
  C        44.9540519974       28.8214798121       11.6379876587
  C        44.0205248909       28.5237999000       12.6487200201
  C        43.3922367543       29.5405557946       13.3608854346
  C        45.5631487913       27.7241062277       10.8527565570
  C        45.5335112072       27.7174701575        9.4314595613
  C        44.8271984989       28.7077006206        8.6784983222
  C        35.1158352314       26.6424549654        8.7332858949
  C        35.1122261214       26.6119031102       11.5431053646
  C        18.1486013949        3.2470444995       13.7014896139
  C        17.4300136143        4.3438892926       12.9921855574
  C        16.4148194740        4.0526154784       12.0686165021
  C        15.7665103520        5.0832459375       11.3932328232
  C        16.1211681530        6.4284693201       11.6159847420
  C        17.1125470440        6.7118568307       12.5732365812
  C        17.7602281702        5.6829401321       13.2529913808
  C        15.4906838743        7.5241726844       10.8435468517
  C        15.4966491282        7.5076024541        9.4224183419
  C        16.1934943202        6.5059554686        8.6757308543
  H        10.6724729815       12.4660513034       11.8992383270
  H        11.6946473767       10.5512310515       10.6573355405
  H        15.3914002807       11.1681066489       12.7675639147
  H        14.3509509787       13.0709064123       14.0128404845
  H        13.3760018988       11.6311213900        9.1961917197
  H        50.3228885984       22.7486697208       11.9819557332
  H        49.3197180086       24.6231400319       10.6759315288
  H        45.6420027319       24.1608780961       12.8583044455
  H        46.6629117623       22.2899648973       14.1665383887
  H        47.6298028544       23.5758884925        9.2411224067
  H        14.8719865087        8.5882044677       12.6034427094
  H        50.2872354352       22.7028629871        4.0653349669
  H        49.2692187224       24.5757316284        5.3654022153
  H        45.6104090667       24.1089639253        3.1514626088
  H        46.6525297271       22.2536459482        1.8372097569
  H        47.6077772006       23.5518392768        6.8019839509
  H        40.6620187786       17.1442641192        3.4345770639
  H        48.6869774658       14.0948736138       15.7948761327
  H        10.6813420237       12.4667647578        4.0984875385
  H        11.6895668214       10.5248345157        5.3022133320
  H        15.3933286410       11.1585538845        3.2103530373
  H        14.3648368666       13.0869887665        1.9950304551
  H        13.3756627943       11.6220886973        6.7582047292
  H        47.9301333477       14.2180984371        1.7159728519
  H        47.7800523709       14.3732375861       14.4899101967
  H        49.0840977715       18.5526937113        2.8726797462
  H        10.4159897580       14.1342730411        0.0038096703
  H        24.4847542509        3.0276685812       11.9138961920
  H        25.6259134133        4.8869182578       10.6878483824
  H        23.2496647263        7.7537371783       12.8403628686
  H        22.1267976716        5.8847889489       14.0679947687
  H        23.8136281960        5.7899856095        9.2616606551
  H        36.3695247046       32.1916810783       11.9706856046
  H        35.2398823195       30.3687319496       10.6926200264
  H        37.5110157249       27.4420312870       12.8785803473
  H        38.6196527664       29.2776930154       14.1667097692
  H        37.0080077659       29.4616758310        9.2711215832
  H        25.7352041255        8.6114223630       12.6469344203
  H        36.4528858301       32.2487013166        4.1112123183
  H        35.3341451599       30.4353044167        5.4072236607
  H        37.5208294307       27.4910313711        3.1581395245
  H        38.6138343647       29.3162616772        1.8489327963
  H        37.0262036563       29.4824022256        6.8333672521
  H        46.1093356323       26.5875511831        3.3906870395
  H        44.6682950573       35.1161526367       15.8088218217
  H        24.4342438486        3.0388840284        4.0928271383
  H        25.5657615970        4.8778441577        5.3444450878
  H        23.1665197022        7.7675231529        3.2492497922
  H        22.0468059608        5.9165130608        1.9973352445
  H        23.7910145881        5.7912921811        6.8233475318
  H        44.9538560629       34.3903745172        1.7002726819
  H        44.9017515522       34.2067535254       14.4855475323
  H        40.6659581362       33.2091221342        2.8582877053
  H        23.1505267432        1.9577307896        0.0104649141
  H        25.7953512620       19.6831023806       11.9365457890
  H        23.6289228480       19.7232171318       10.7021345288
  H        22.3672113205       16.1958705591       12.8145223030
  H        24.5429326962       16.1647474958       14.0423566787
  H        23.7251207163       17.6942659374        9.2385506954
  H        35.1456181048       15.4720155164       11.9723367325
  H        37.2650360713       15.4445897124       10.6504186048
  H        38.7069424784       18.8031228205       12.9190308151
  H        36.5826415987       18.8119161342       14.2409848902
  H        37.2315585359       17.4385138075        9.2453919646
  H        20.3584504661       17.9713124055       12.6626852689
  H        35.2084198479       15.4712806650        4.0894811435
  H        37.3408858788       15.4315525197        5.3922006520
  H        38.7410069011       18.8465174678        3.1831769937
  H        36.6043744658       18.8672285376        1.8792047151
  H        37.2511736598       17.4430988156        6.8027096722
  H        35.1402813817       26.6911737257        3.4016273439
  H        28.5066968099       21.0915518955       15.9725198101
  H        25.7431288429       19.6512218624        4.1372136876
  H        23.5595701746       19.7081247938        5.3555033587
  H        22.3056430369       16.1720862744        3.2535105106
  H        24.4895788823       16.1365686914        2.0324499019
  H        23.7032102165       17.6814717958        6.7980712463
  H        29.0103710404       21.7195650427        1.7639505464
  H        29.1476450788       21.7498467700       14.6068782694
  H        32.0933602825       18.5745397814        2.9887544053
  H        27.3998260310       19.0791359173        0.0959698925
  H        14.8481980035       19.6492502840        4.1436658973
  H        17.0109013754       19.6965615326        5.3868717919
  H        18.3024720495       16.1884305989        3.2600030809
  H        16.1356176172       16.1568518996        2.0165906220
  H        16.9214635836       17.6973873371        6.8519785619
  H        46.0944051068       15.4590562002        4.0892385716
  H        43.9732969503       15.4214080271        5.4050096702
  H        42.5673964974       18.8464749082        3.2147517951
  H        44.6884841525       18.8590755185        1.8892952541
  H        44.0338162202       17.3677388996        6.8555776578
  H        20.2892114135       17.9243128443        3.4249755323
  H        46.0392584232       15.3927490301       12.0266924174
  H        43.9058635600       15.3411053833       10.7326004103
  H        42.5193903283       18.7918902390       12.8933477308
  H        44.6596337500       18.8308520737       14.1870004112
  H        44.0144030590       17.3384120590        9.2954925218
  H        46.1991688928       26.6825862245       12.6182520887
  H        52.7410865887       21.0625791678        0.1997968264
  H        14.8808094147       19.6758869204       11.8941491246
  H        17.0813380063       19.7491607865       10.7138478170
  H        18.3338914627       16.2265796104       12.8396032112
  H        16.1354150982       16.1773569401       14.0294685572
  H        16.9427197154       17.7112317629        9.2894368146
  H        52.3221698729       21.6731906157       14.2892701380
  H        52.0129447507       21.7018356299        1.5007318876
  H        49.0672986168       18.6077993109       13.1991937999
  H        13.2475269701       19.0163571679       15.9720825662
  H        29.9492236184       12.4539686028        4.2361314153
  H        28.8844618441       10.5210361289        5.4082195448
  H        25.2479602623       11.1985888315        3.2146496402
  H        26.3328614440       13.1189007359        2.0338377822
  H        27.1834190968       11.6639354392        6.7986974610
  H        30.9910205642       22.7825929748        4.0159546699
  H        31.9966247609       24.6617206150        5.3154787776
  H        35.6892494372       24.1521672110        3.1695760520
  H        34.6629560785       22.2795837197        1.8646027572
  H        33.6634007351       23.5900967096        6.7615307173
  H        25.7038746006        8.5946752292        3.4107997689
  H        30.9265413235       22.7415222613       11.9776057871
  H        31.9501157910       24.5953142790       10.6534125148
  H        35.6211381032       24.1141598895       12.8428894602
  H        34.5825881831       22.2594161132       14.1615646560
  H        33.6411585148       23.5718799646        9.2019577340
  H        40.5942889193       17.0869071174       12.6612814570
  H        32.5228726731       14.1364801580        0.2695299005
  H        29.9028313498       12.5086639662       11.9319115068
  H        28.8729690524       10.6117872105       10.6771755804
  H        25.1990570482       11.1879847968       12.8376945008
  H        26.2488265209       13.0751911648       14.0988055183
  H        27.1810118693       11.6776059555        9.2373702694
  H        33.2975925149       14.1864219662       14.4299289217
  H        33.4100931418       14.4028693797        1.6187283521
  H        32.2681354701       18.5956231407       13.2930738189
  H        30.2159468742       14.1802704313        0.0966434257
  H        16.1183886559        2.9634197855        4.1348278605
  H        14.9532615715        4.8205421409        5.3275742084
  H        17.3664463814        7.6860117302        3.2153505259
  H        18.5151299700        5.8184101911        2.0155510805
  H        16.7538833094        5.7398314356        6.7766212848
  H        44.8281619321       32.1403188993        3.9821438140
  H        45.9375088904       30.3414686400        5.3115585419
  H        43.6826645931       27.3781857585        3.1575229443
  H        42.5999109164       29.1900176573        1.8149108994
  H        44.2306034857       29.4368446790        6.7739946713
  H        14.8511193934        8.5461997027        3.3684443884
  H        44.8999081764       32.2340741160       11.9267367927
  H        46.0248311480       30.4130421513       10.6472416944
  H        43.7635349695       27.4840693408       12.8402353162
  H        42.6457373537       29.3177296061       14.1193209018
  H        44.2686803927       29.4705927291        9.2130628259
  H        35.0746786313       26.6211112149       12.6307765944
  H        36.6051227800       35.1341681596        0.1856735807
  H        16.1437447496        3.0130381203       11.8989117537
  H        14.9741845333        4.8564161162       10.6831464031
  H        17.3960485303        7.7473271744       12.7501302983
  H        18.5431081200        5.8933690124       13.9777594792
  H        16.7649665776        5.7557566716        9.2141783945
  H        36.2786337824       34.4826278137       14.2681159819
  H        36.3810391443       34.2091586402        1.5046037428
  H        40.5801994052       33.2025516044       13.1485725645
  H        17.4706536703        1.9474576112       15.9690632003
  H        29.2343903949       19.5552611121        4.5474992814
  H        28.8819136050       18.9163895455       11.7942575701
  H        30.7794733176       15.5474434339       11.8073291101
  H        31.1551550198       15.5848560170        4.5049833529
  H        28.1802245915       18.5558395663        6.9344904886
  H        29.2375279667       15.4090395692        6.3392303936
  H        30.9444734122       19.8915743117       10.2791586974
  H        29.2395452024       16.6111579503        9.9600827001
  H        18.8540628425        0.8692021050        4.3405227770
  H        40.5279962257       35.2290669888       11.9469540541
  H        42.3240184488       34.4188880601       11.5853468772
  H        22.0879139713        0.6923544741        4.3565703532
  H        11.5969216499       18.7132135827        4.3876964886
  H        52.2648023478       18.4310407673       11.6720309703
  H        49.2551293690       16.4771317782       11.5795376521
  H        10.1509578585       15.7980857368        4.2975110221
  H        50.8499004712       17.6923768593       11.9491960485
  H        10.0464701692       17.3944390332        4.0570924626
  H        20.2154252958        0.0024471647        4.0470346302
  H        39.1837330881       36.1244595710       11.6811905569
 Ni        30.9416767213       17.7677052198       11.2364387117
 Ni        30.6043048737       16.5447260495        8.0794321502
 Ni        30.1365503650       18.8687337489        8.3215140830
 Ni        30.2259706167       17.5579195957        5.2512839812
  O        10.6499578546       14.3650928760       13.4806921260
  O        12.6131850207       14.6575105066       14.5787993060
  O        49.1481928131       16.8459121777       15.9846545673
  O        50.3502573580       20.9359073165       13.6430361852
  O        48.3485812434       20.5933392590       14.6607976917
  O        11.0517006708       17.0538925840       14.4955445966
  O        50.3210637672       20.8816723436        2.4119533073
  O        48.3467764683       20.5868412238        1.3322809177
  O        49.5437467476       18.2484630391        2.0734411441
  O        12.3590984807       18.6245941250        0.0047723652
  O        48.6932962936       14.1485171611       14.7461916574
  O         8.2098816582       14.2103417263        1.3276891051
  O        10.7354037313       14.5067045460        2.6694268506
  O        12.5718463590       14.5828141239        1.3335851127
  O        22.8444386872        2.0427362962       13.4822423330
  O        21.6054617375        3.5921951670       14.5846468030
  O        42.0582554078       34.1373952800       15.9739022470
  O        37.9818179027       33.1392167055       13.5677631348
  O        39.2180394133       31.5764945847       14.6615180186
  O        20.3084842478        1.0396916415       14.4969997467
  O        38.0250316407       33.1866866721        2.4199974613
  O        39.2189316553       31.5836805769        1.3318132948
  O        40.6523585304       33.7693828848        2.0653474355
  O        18.2553665367        1.3763323851        0.0019062241
  O        44.6222549183       35.1005264878       14.7536334789
  O        24.2054417304        0.0000036161        1.3258820787
  O        22.7529465646        2.0575823253        2.5888261216
  O        21.6243959840        3.5960271024        1.3476903254
  O        27.4987298824       18.7514436366       13.4868129258
  O        26.7610169510       16.9383346036       14.6484856990
  O        30.6717536453       19.4103801791        0.0809986738
  O        33.5917300910       16.2762961143       13.6702519437
  O        34.2734161498       18.1716966724       14.7335768015
  O        29.5749851804       17.0684625638       14.5802472541
  O        33.6198036057       16.3292811032        2.4184824767
  O        34.3066149128       18.2470186978        1.4131524357
  O        31.6553792238       18.3148834471        2.1614993210
  O        30.3189609868       15.1459253608        0.1040027261
  O        28.5521355438       21.0365083814       14.9003839232
  O        28.5139185704       20.9583772770        1.4173711614
  O        27.4572842872       18.6790037805        2.6640839903
  O        26.6944368808       16.9288049264        1.4171662719
  O        13.1486288993       18.6930064533        2.5925298014
  O        13.9194396090       16.9162229894        1.4101675374
  O        50.5963167042       19.3503222670        0.0255902600
  O        47.6834562114       16.3270613303        2.4224495878
  O        46.9523665098       18.1760123250        1.3293309257
  O        11.0697659672       17.0155174362        1.4947753601
  O        47.6764923343       16.3353863104       13.6481121961
  O        46.9287966598       18.2356955125       14.6603670702
  O        49.5687908471       18.3177286684       13.9771647003
  O        10.3186512398       15.1001277183        0.0021799375
  O        52.6707753275       21.0279154043        1.2469345483
  O        12.1468270150       20.8911783685       14.6680740783
  O        13.1083078231       18.6136186037       13.3204623266
  O        13.9572866853       16.9869967304       14.6602786162
  O        29.9918259659       14.4403712996        2.7379277988
  O        28.0891257177       14.6537860786        1.5002664550
  O        32.1420894350       16.8625776563        0.1039917121
  O        30.9645497631       20.9547784357        2.4139367683
  O        32.9469924184       20.6058971034        1.3483444799
  O        29.5683947832       17.0766024255        1.5815694270
  O        30.8782490142       20.9518877273       13.6645766201
  O        32.8832676227       20.5836218860       14.6639426325
  O        31.6857932172       18.2582038604       13.9934524301
  O        28.2843003924       18.6786911544        0.0834613214
  O        32.4949493758       14.2126295911        1.3401742123
  O        32.4100056853       14.2028122618       14.8251641264
  O        29.9152463054       14.4362777322       13.4870219047
  O        28.0379675336       14.5888116716       14.7490979037
  O        17.8892129219        1.9666907570        2.6679362901
  O        18.9562055630        3.5271965768        1.4130818494
  O        39.1687092945       34.1389000384        0.0023184476
  O        43.2802314738       33.0589755080        2.3368315655
  O        42.0345234272       31.5064437313        1.2467569271
  O        20.3177506663        1.0367951724        1.4852535306
  O        43.2760781040       33.1825551307       13.5697817584
  O        42.0052732815       31.5841087751       14.5779070786
  O        40.5790642421       33.7750346550       13.9308276015
  O        22.3673410428        1.3846116622        0.0030628023
  O        36.6727173519       35.0998680117        1.2383527890
  O        16.4455363293        0.0644438147       14.6632719185
  O        17.9364894364        2.0434599409       13.3212609811
  O        18.9190375151        3.5931805664       14.6608227982
  O        29.7783444097       19.0440731843       12.1559200584
  O        29.8166523354       18.9860122695        4.0104956879
  O        31.3062083464       16.2508114948       12.2377684351
  O        31.3065177530       16.4124425627        4.0058086740
  O        30.1712497366       16.3282475821        9.9010878491
  O        30.1132047435       15.8298425896        6.3440718798
  O        31.4475067758       17.9643364315        6.9859106207
  O        31.2218129997       19.0640119449        9.8376456121
  O        29.1117674806       18.7580581018        6.7499308577
  O        39.4568175961       35.2438698481       11.9968669144
  O        19.1419596673        0.0048175244        3.9956134329
  O        41.9696059556       35.1727008447       12.0820491230
  O        21.6914801053       -0.0691513807        3.9010932234
  O        51.3650835544       18.6142711254       12.0003287169
  O        10.7511807501       18.7472454693        3.9100465430
  O        50.0797154961       16.4128308169       12.0865592558
  O         9.5249541650       16.4829639597        3.9963314690
 Zr         9.2968199049       16.0527063485       14.1773314097
 Zr        49.8361263372       16.0066111431        1.7515390831
 Zr        22.0732957545        0.0298536317       14.1838873653
 Zr        42.4610177458       35.1535010820        1.8060461813
 Zr        29.6061424557       19.1132540684       14.3193602689
 Zr        29.5809655504       19.1739556472        1.8715511648
 Zr        11.0379055747       19.0519598886        1.8327256980
 Zr        11.0437245410       19.1548331057       14.2460040412
 Zr        31.3523647746       16.0995879737        1.9012519541
 Zr        31.4085416606       16.0004764526       14.3480784439
 Zr        18.6012181496       -0.0011600333        1.7684879482
 Zr        18.5065948398       -0.0073477588       14.2087198367
 Zr        12.3017620032       16.3235167688       15.9852081397
 Zr        48.6166408443       18.8332276722        0.0154481280
 Zr        20.3151991727        2.4734645385       15.9854517873
 Zr        40.6435466912       32.6872065994       15.9732225029
 Zr        28.3469656945       16.3419451850        0.0873651403
 Zr        32.6416514897       18.8434672724        0.0762006662
  H        32.4152894012       18.0527021367        7.0013993538
  H        28.9865250045       19.1984090082        9.1307721591
