     571
 i =      148, E =     -4761.6416184108
  C        11.8586131210       14.0535356460       13.7364994214
  C        12.4561159495       12.8905555437       13.0182165201
  C        11.7045041626       12.1718456821       12.0763304237
  C        12.2808771335       11.1096437577       11.3839660421
  C        13.6213576067       10.7396384969       11.6119106333
  C        14.3544060254       11.4429692352       12.5856454397
  C        13.7815292008       12.5079358141       13.2771715290
  C        14.2609378188        9.6490254672       10.8384994508
  C        14.2563450799        9.6569979259        9.4167986112
  C        13.7431703153       10.7591161900        8.6628864434
  C        49.1267130412       21.2331960759       13.8746170883
  C        48.5500123901       22.4011185636       13.1475496717
  C        49.3001357901       23.0685748440       12.1667075688
  C        48.7331980761       24.1076951338       11.4334979411
  C        47.4025904526       24.5092103410       11.6619817290
  C        46.6715124999       23.8601329170       12.6752736415
  C        47.2339619421       22.8152456118       13.4046495937
  C        46.7724014940       25.5869448536       10.8647162995
  C        46.7615283214       25.5573899149        9.4429530814
  C        47.2614806138       24.4423110857        8.6994481638
  C        14.8603823559        8.5707149183        8.7035346419
  C        14.8916670453        8.5970502686       11.5151579038
  C        49.1131315655       21.2034779024        2.1504389318
  C        48.5277758086       22.3647706110        2.8776280813
  C        49.2671400498       23.0257117893        3.8703050071
  C        48.6908009800       24.0602302430        4.6017974990
  C        47.3602808831       24.4568038751        4.3637924749
  C        46.6397115488       23.8116295960        3.3405493529
  C        47.2132543026       22.7757379617        2.6087349791
  C        46.7218965407       25.5318063320        5.1548279232
  C        46.7337463112       25.5282156251        6.5765284694
  C        47.2492223596       24.4290099392        7.3328946311
  C        40.6215499468       17.1070650289        7.3153300613
  C        40.6322936470       17.1058292617        4.5058095895
  C        11.8828745265       14.0865212967        2.2905555614
  C        12.4721774307       12.9106463746        2.9947337780
  C        11.7147129585       12.1775927427        3.9209955179
  C        12.2812956402       11.0951534215        4.5894490517
  C        13.6200474318       10.7212784925        4.3574738646
  C        14.3579220891       11.4366293342        3.3964301750
  C        13.7925019787       12.5177812948        2.7237077283
  C        14.2537023246        9.6245945347        5.1279264391
  C        14.2525425147        9.6446473010        6.5497646749
  C        13.7426152403       10.7535716157        7.2968401458
  C        22.5115248616        3.2439420014       13.7481852876
  C        23.2260819759        4.3488806094       13.0484277268
  C        24.2233451971        4.0680402114       12.1028716984
  C        24.8504432679        5.1070782774       11.4203384882
  C        24.4956949176        6.4488229141       11.6634362989
  C        23.5265672178        6.7212994304       12.6460245727
  C        22.8948869086        5.6840210340       13.3269747312
  C        25.1020340552        7.5544641179       10.8875633727
  C        25.0759606785        7.5463163916        9.4661215839
  C        24.3725771173        6.5475818130        8.7204392567
  C        38.3021431780       31.9307573251       13.8447416303
  C        37.5706279647       30.8423742962       13.1364719090
  C        36.6082405989       31.1478595980       12.1620424461
  C        35.9887172405       30.1286071077       11.4446594314
  C        36.3175386826       28.7793420187       11.6799696485
  C        37.2502609665       28.4812496810       12.6910542731
  C        37.8735595160       29.4992070982       13.4076923207
  C        35.7134424793       27.6892186437       10.8826605413
  C        35.7404659489       27.7069683325        9.4613987168
  C        36.4450695682       28.7103719516        8.7243690147
  C        25.7012198864        8.6147635342        8.7460194079
  C        25.6984391745        8.6296616417       11.5581432587
  C        38.3287680517       31.9624052523        2.1616311599
  C        37.6062793990       30.8906043981        2.9043515790
  C        36.6755178373       31.2019045084        3.9073779203
  C        36.0630550901       30.1853386021        4.6374771333
  C        36.3671745984       28.8320593082        4.3882341587
  C        37.2761044180       28.5306921029        3.3554899529
  C        37.8905745881       29.5437948609        2.6264697971
  C        35.7559349834       27.7349629339        5.1725599075
  C        35.7620865265       27.7304437261        6.5945970378
  C        36.4551115752       28.7217903772        7.3578975120
  C        46.1357633035       26.6208688076        7.2866561924
  C        46.0878553132       26.5801001739        4.4787584460
  C        22.4605053639        3.2553958246        2.2625008914
  C        23.1542785463        4.3638547830        2.9855654651
  C        24.1566567334        4.0772212523        3.9258018812
  C        24.7845551672        5.1070087016        4.6221227893
  C        24.4300218468        6.4527832042        4.4005211034
  C        23.4507055228        6.7327561989        3.4287769805
  C        22.8181468978        5.7031584918        2.7329827678
  C        25.0613751346        7.5502170891        5.1746859583
  C        25.0556242731        7.5434405568        6.5973923943
  C        24.3609633312        6.5473448603        7.3538408715
  C        26.6205026503       17.8627531755       13.7739823889
  C        25.3146933117       17.9085003891       13.0472391862
  C        25.0478900317       18.9127642040       12.1029650228
  C        23.8345395650       18.9314750822       11.4174016586
  C        22.8503409887       17.9505231226       11.6554167795
  C        23.1128983570       16.9690480288       12.6298619321
  C        24.3284003035       16.9441499415       13.3120862015
  C        21.5766049236       17.9362584231       10.8918091231
  C        21.5772630946       17.9185320093        9.4693485035
  C        22.7834714848       17.8007799056        8.7089371147
  C        34.4423313342       17.1933254797       13.9188640771
  C        35.7353490259       17.1461196843       13.1745585833
  C        35.9363985106       16.1830924587       12.1733103205
  C        37.1150639556       16.1737438694       11.4327528084
  C        38.1252510309       17.1254295197       11.6736830757
  C        37.9268321478       18.0683560493       12.7003762925
  C        36.7450010506       18.0839729726       13.4377394136
  C        39.3776640052       17.1357090582       10.8838734098
  C        39.3699862058       17.1435418283        9.4618443925
  C        38.1615537809       17.2641670077        8.7059766885
  C        20.3307648566       17.9344547012        8.7607322498
  C        20.3519862049       17.9355408279       11.5743891670
  C        34.4408338965       17.2363507924        2.1968505226
  C        35.7427712480       17.1344190495        2.9164801101
  C        35.9418926274       16.1661297935        3.9117433847
  C        37.1326490489       16.1371199080        4.6336754290
  C        38.1527319454       17.0752933803        4.3805198978
  C        37.9599454024       18.0145635123        3.3499535339
  C        36.7688452303       18.0488959944        2.6314354634
  C        39.4019603745       17.0960658401        5.1734668135
  C        39.3823440223       17.1231070238        6.5948728343
  C        38.1673833095       17.2526436518        7.3393323314
  C        35.1294836976       26.6523818631        7.2985767113
  C        35.1670859255       26.6636665711        4.4893878787
  C        26.5724893175       17.8285600446        2.3283051448
  C        25.2560945397       17.8753655990        3.0328286758
  C        24.9883988954       18.8870095016        3.9674710952
  C        23.7711277925       18.9131111552        4.6425930856
  C        22.7917681317       17.9278730741        4.4055349336
  C        23.0531844541       16.9415025253        3.4374308468
  C        24.2715281877       16.9131186724        2.7611902662
  C        21.5283183951       17.9101843195        5.1792812396
  C        21.5522985392       17.9036134152        6.6007702489
  C        22.7712325608       17.7933489572        7.3426750360
  C        14.0463381784       17.8288974777        2.2937330926
  C        15.3508795607       17.8861773432        3.0189973989
  C        15.6071954615       18.8893935527        3.9666186774
  C        16.8162122579       18.9105542157        4.6594076334
  C        17.8030414239       17.9313765920        4.4264842224
  C        17.5515028351       16.9523403640        3.4467756012
  C        16.3418600881       16.9265598797        2.7556872307
  C        19.0721871265       17.9151551407        5.1952424490
  C        19.0709055053       17.9125553349        6.6176925134
  C        17.8640022118       17.8118637429        7.3789406398
  C        46.8027758012       17.2166416183        2.1624675209
  C        45.5099932701       17.1480810241        2.9036272126
  C        45.3077121775       16.1709926571        3.8908346346
  C        44.1239409673       16.1457043741        4.6235673449
  C        43.1112885935       17.0970330520        4.3914822839
  C        43.3101697957       18.0524026232        3.3762644535
  C        44.4950419475       18.0820101724        2.6446974761
  C        41.8581688413       17.1042692337        5.1814302200
  C        41.8667957007       17.1164337156        6.6035860708
  C        43.0769181857       17.2209683852        7.3591489952
  C        20.3176555899       17.9260274600        7.3258860438
  C        20.2963055082       17.8962937817        4.5128593322
  C        46.7854945397       17.2329708064       13.8812006679
  C        45.4842576399       17.1318447319       13.1611256887
  C        45.2666285569       16.1384915384       12.1942065157
  C        44.0794588536       16.1155624737       11.4662328267
  C        43.0798472738       17.0830766551       11.6873047466
  C        43.2885304250       18.0468680961       12.6916357229
  C        44.4766656872       18.0761613612       13.4148528573
  C        41.8323586150       17.1064234914       10.8920284573
  C        41.8537673845       17.1166383997        9.4707743493
  C        43.0708808488       17.2178533249        8.7259640179
  C        46.1535409238       26.6372841628        8.7212041098
  C        46.1623830339       26.6560205382       11.5308519384
  C        14.0453007217       17.8312884751       13.7033891762
  C        15.3663034335       17.9046891848       13.0120701401
  C        15.6404995118       18.9205339268       12.0842122725
  C        16.8694469323       18.9572476318       11.4291329813
  C        17.8519804182       17.9773202873       11.6761653241
  C        17.5845312917       16.9901099671       12.6419935712
  C        16.3575611812       16.9528987132       13.3005465791
  C        19.1194880906       17.9531478101       10.9073262695
  C        19.0956921183       17.9307843317        9.4857555658
  C        17.8760543821       17.8199994084        8.7449593323
  C        28.8077947804       14.0894206651        2.3956046561
  C        28.1944908238       12.9154054653        3.0817974179
  C        28.9213610110       12.1674833780        4.0198373764
  C        28.3224069964       11.0926626787        4.6718809796
  C        26.9827949794       10.7417671776        4.4093772418
  C        26.2774941119       11.4695934220        3.4342726730
  C        26.8741402545       12.5448706558        2.7807591497
  C        26.3150930702        9.6615840517        5.1711674878
  C        26.3068993650        9.6861954873        6.5922098222
  C        26.8168378333       10.7962346113        7.3376894444
  C        32.1779746414       21.2424840901        2.1549706072
  C        32.7698748108       22.4100235268        2.8722353128
  C        32.0167173844       23.0953875441        3.8379052742
  C        32.5850676076       24.1361385187        4.5657193004
  C        33.9223984341       24.5197123977        4.3482326539
  C        34.6582877229       23.8538110365        3.3501196954
  C        34.0922543975       22.8073440236        2.6245211001
  C        34.5490063314       25.5959987593        5.1490115795
  C        34.5364980050       25.5692432428        6.5706791961
  C        34.0229084542       24.4561564756        7.3086475011
  C        25.6954560733        8.6096303699        7.3114534513
  C        25.6758172806        8.6125392635        4.4980818211
  C        32.1058268949       21.2319451685       13.8853828950
  C        32.6958492586       22.3846410220       13.1427402733
  C        31.9541105214       23.0501059834       12.1543703015
  C        32.5314439801       24.0786891888       11.4136539486
  C        33.8638524870       24.4727234894       11.6450761286
  C        34.5884800318       23.8211864509       12.6614340694
  C        34.0161481857       22.7860304663       13.3963528425
  C        34.5002464773       25.5550372438       10.8593437166
  C        34.5104504789       25.5487982553        9.4374217583
  C        34.0094217811       24.4468330234        8.6753101252
  C        40.6146745114       17.1126792447        8.7500692157
  C        40.6030438413       17.1332472784       11.5601547999
  C        28.7397562989       14.0644539952       13.8155044697
  C        28.1282238424       12.9207269825       13.0754972882
  C        28.8675313960       12.2194225065       12.1106335771
  C        28.2873976158       11.1635223013       11.4118610574
  C        26.9523759309       10.7820634122       11.6533823026
  C        26.2298372654       11.4708713255       12.6456557560
  C        26.8081314638       12.5278239834       13.3458708283
  C        26.3125401938        9.6907005589       10.8805114605
  C        26.3069420811        9.7013848234        9.4586985236
  C        26.8146620849       10.8049092696        8.7035049021
  C        18.1354052349        3.1809825333        2.3222826774
  C        17.4060648537        4.2782533962        3.0208953688
  C        16.3903993084        3.9998908619        3.9484596817
  C        15.7427088846        5.0398800723        4.6119897518
  C        16.0945557801        6.3835975378        4.3722211554
  C        17.0838543244        6.6531139359        3.4083731254
  C        17.7329118967        5.6157663661        2.7432936385
  C        15.4702543536        7.4913157459        5.1352554570
  C        15.4856277043        7.4906953186        6.5569648966
  C        16.1872560539        6.4971387693        7.3101462668
  C        42.9459186908       31.8594778982        2.0780096231
  C        43.6462656988       30.7718104043        2.8219611696
  C        44.5918965440       31.0931429628        3.8079356863
  C        45.1976012963       30.0876147120        4.5556199848
  C        44.8710942929       28.7345526105        4.3408479776
  C        43.9451382304       28.4201849068        3.3277616137
  C        43.3363331469       29.4253217372        2.5797000364
  C        45.4887251658       27.6552693561        5.1440294963
  C        45.4930129604       27.6809595654        6.5657221318
  C        44.8059469229       28.6890132183        7.3123546174
  C        14.8566169823        8.5631732777        7.2693118762
  C        14.8748795311        8.5630242319        4.4566587572
  C        42.9464829085       31.9615337440       13.8039043854
  C        43.6916825337       30.8854284376       13.0903947710
  C        44.6563699370       31.1913364264       12.1181813217
  C        45.2779165618       30.1717480116       11.4004832806
  C        44.9540593005       28.8214289546       11.6380355037
  C        44.0204601538       28.5237559137       12.6487062365
  C        43.3921838610       29.5405273477       13.3608660973
  C        45.5631549713       27.7240542735       10.8527925869
  C        45.5335348652       27.7174224325        9.4314910450
  C        44.8272221720       28.7076602303        8.6785385508
  C        35.1172987275       26.6411728891        8.7333160943
  C        35.1127883390       26.6118137238       11.5431154602
  C        18.1485737322        3.2470146310       13.7015219636
  C        17.4299314609        4.3438742071       12.9922497167
  C        16.4147967955        4.0526038094       12.0686054236
  C        15.7665142337        5.0832447517       11.3931924196
  C        16.1210838382        6.4284857776       11.6160075204
  C        17.1123997847        6.7118436832       12.5733338818
  C        17.7600558503        5.6829355419       13.2531251625
  C        15.4906115704        7.5241929674       10.8435589414
  C        15.4966108897        7.5076182575        9.4224245914
  C        16.1934594482        6.5059557663        8.6757507343
  H        10.6724373102       12.4661235657       11.8991744867
  H        11.6946162643       10.5512937682       10.6573011610
  H        15.3913386275       11.1681413229       12.7675864693
  H        14.3508825123       13.0709780981       14.0128307487
  H        13.3760471551       11.6311970822        9.1961910081
  H        50.3228854419       22.7486200158       11.9820633891
  H        49.3197231952       24.6230799579       10.6760334698
  H        45.6419311449       24.1607166324       12.8582588633
  H        46.6628124513       22.2898362574       14.1665256016
  H        47.6299552693       23.5759023171        9.2411259311
  H        14.8718809439        8.5882108614       12.6034629615
  H        50.2872671194       22.7030255122        4.0650501684
  H        49.2692505844       24.5758565231        5.3651415829
  H        45.6101834735       24.1086100072        3.1517423303
  H        46.6522339851       22.2533182619        1.8374901064
  H        47.6079295959       23.5518596717        6.8019979769
  H        40.6360931768       17.0623634291        3.4183269516
  H        48.6868994569       14.0949955654       15.7948875403
  H        10.6812788313       12.4667531713        4.0984779853
  H        11.6895106204       10.5248355534        5.3022127747
  H        15.3932752390       11.1585654168        3.2103246842
  H        14.3647609382       13.0870089863        1.9950047026
  H        13.3757042898       11.6221409848        6.7581890002
  H        47.9301143771       14.2183180003        1.7159841196
  H        47.7798677239       14.3730099335       14.4898753949
  H        49.0826490585       18.5520413035        2.8721325240
  H        10.4157818661       14.1343588641        0.0038224501
  H        24.4844855093        3.0292916868       11.9132265190
  H        25.6240326820        4.8894808555       10.6871088236
  H        23.2455105172        7.7543985145       12.8397133370
  H        22.1243468320        5.8844872380       14.0673856584
  H        23.8104283826        5.7917295138        9.2610836698
  H        36.3708535913       32.1913840649       11.9692224448
  H        35.2418926837       30.3681631668       10.6909217046
  H        37.5111891291       27.4418586884       12.8792319768
  H        38.6193620770       29.2777251086       14.1674110993
  H        37.0103701155       29.4599357363        9.2704430218
  H        25.7312003213        8.6139854693       12.6460463251
  H        36.4528328454       32.2466640756        4.1119942829
  H        35.3356011440       30.4321858620        5.4076020296
  H        37.5229127196       27.4898943404        3.1565806367
  H        38.6145105859       29.3161045268        1.8478557377
  H        37.0292097631       29.4796984648        6.8327410541
  H        46.1091060074       26.5874010960        3.3907186173
  H        44.6682067354       35.1161334247       15.8088718944
  H        24.4343677444        3.0388835058        4.0922739710
  H        25.5656321866        4.8781267844        5.3439914314
  H        23.1656833323        7.7673644500        3.2489345540
  H        22.0461809877        5.9160177306        1.9970860696
  H        23.7892838353        5.7918761493        6.8226399421
  H        44.9536869237       34.3902349738        1.7001676986
  H        44.9016542720       34.2067328629       14.4855479043
  H        40.6658485264       33.2088908019        2.8581759463
  H        23.1504681376        1.9576599385        0.0103508129
  H        25.8004693795       19.6773215867       11.9235696586
  H        23.6329436330       19.7163918415       10.6915036186
  H        22.3648399909       16.2027513257       12.8228626626
  H        24.5413739967       16.1731090958       14.0488964362
  H        23.7246309414       17.6851696753        9.2385603447
  H        35.1505394403       15.4554637730       11.9843895364
  H        37.2694848385       15.4197518107       10.6640152986
  H        38.6983102764       18.8116348034       12.8908150712
  H        36.5751903909       18.8274253163       14.2131816993
  H        37.2239901359       17.3972686729        9.2381733217
  H        20.3586190971       17.9731692522       12.6623451656
  H        35.1450959859       15.4555779056        4.1192693356
  H        37.2846585568       15.3836567909        5.4033899146
  H        38.7407001270       18.7448731764        3.1478354398
  H        36.5998597946       18.7939297843        1.8578037468
  H        37.2340632205       17.3764737560        6.7976535797
  H        35.1432254132       26.6874207203        3.4015567921
  H        28.5072243811       21.0866369999       15.9692021725
  H        25.7474758855       19.6456808588        4.1446910686
  H        23.5629732441       19.7018023032        5.3624615982
  H        22.3050135209       16.1743487982        3.2484634337
  H        24.4895198308       16.1397737278        2.0284605532
  H        23.7027680071       17.6718282663        6.7979669632
  H        29.0156655514       21.7187119469        1.7579865799
  H        29.1523773211       21.7473055561       14.6103340420
  H        32.0521597621       18.5628377894        3.0129515201
  H        27.4040346064       19.0811540238        0.0969258858
  H        14.8484309943       19.6480907623        4.1449241486
  H        17.0113004279       19.6947316444        5.3877903602
  H        18.3029959860       16.1884040902        3.2580310807
  H        16.1359174550       16.1574559441        2.0150458828
  H        16.9217095110       17.6950862815        6.8515403139
  H        46.0956314742       15.4451534894        4.0777200963
  H        43.9693144037       15.3809241214        5.3815397648
  H        42.5366254264       18.7949613366        3.1916299251
  H        44.6640294848       18.8349088216        1.8783384996
  H        44.0171348726       17.3345764531        6.8271730024
  H        20.2900470082       17.9245238467        3.4246902668
  H        46.0430250518       15.3980941369       12.0153635858
  H        43.9134825789       15.3438666238       10.7176912083
  H        42.5222381674       18.7985324917       12.8693267357
  H        44.6581655176       18.8391270062       14.1678416055
  H        44.0065565307       17.3279159504        9.2665123256
  H        46.1990943846       26.6824711613       12.6183042967
  H        52.7410450959       21.0625951717        0.1997698497
  H        14.8806371876       19.6750951263       11.8930472383
  H        17.0810842061       19.7480825043       10.7126735169
  H        18.3342518215       16.2269041279       12.8403781298
  H        16.1357927820       16.1779146228       14.0302233053
  H        16.9428278083       17.7095244567        9.2889949988
  H        52.3221758742       21.6731487559       14.2892653712
  H        52.0130950417       21.7019673568        1.5007679073
  H        49.0673677739       18.6079304952       13.1990350422
  H        13.2473121657       19.0164953231       15.9720721127
  H        29.9537629102       12.4427642945        4.2233269581
  H        28.8873405744       10.5116013819        5.3976218660
  H        25.2423960713       11.2079406220        3.2244202421
  H        26.3277725702       13.1283366939        2.0437454351
  H        27.1845645227       11.6627635722        6.7965719865
  H        30.9889179749       22.7875663632        4.0133363513
  H        31.9963327641       24.6662416801        5.3111675266
  H        35.6934187545       24.1410020621        3.1770271450
  H        34.6660670636       22.2673211792        1.8749167279
  H        33.6644642079       23.5883218088        6.7623751399
  H        25.7029213567        8.5945390850        3.4099872503
  H        30.9265992762       22.7412340501       11.9756890554
  H        31.9502908679       24.5957283223       10.6531584077
  H        35.6200081041       24.1147906962       12.8447933448
  H        34.5808544842       22.2598672916       14.1625267411
  H        33.6409509518       23.5714208936        9.2026715902
  H        40.5986662319       17.0972730926       12.6478853103
  H        32.5174212273       14.1421517701        0.2661966537
  H        29.8989803854       12.5120361265       11.9277596776
  H        28.8685029405       10.6153123716       10.6734674847
  H        25.1969624147       11.1884134163       12.8388711881
  H        26.2477800627       13.0747163876       14.1005438201
  H        27.1796388731       11.6783824942        9.2358929279
  H        33.2973137853       14.1914488876       14.4333916215
  H        33.4067037967       14.4049828106        1.6146971128
  H        32.2209043363       18.5747008932       13.2519258247
  H        30.2218085414       14.1860559457        0.0975807417
  H        16.1183943332        2.9633780903        4.1349047281
  H        14.9532913650        4.8204948138        5.3276856428
  H        17.3662019608        7.6859964950        3.2151808246
  H        18.5148655248        5.8183798136        2.0153457159
  H        16.7538198970        5.7398089622        6.7766390611
  H        44.8282416766       32.1402159266        3.9820768723
  H        45.9375437450       30.3413491302        5.3114951303
  H        43.6823109587       27.3781305248        3.1577476186
  H        42.5996106773       29.1899544684        1.8151468782
  H        44.2305467908       29.4367483845        6.7740550389
  H        14.8510080280        8.5461600395        3.3684425537
  H        44.8999637017       32.2340144289       11.9267830358
  H        46.0248821285       30.4129702129       10.6473032596
  H        43.7633938852       27.4840350477       12.8401845762
  H        42.6456088848       29.3177017189       14.1192290682
  H        44.2686671661       29.4705131431        9.2131223037
  H        35.0748854305       26.6215102085       12.6307689173
  H        36.6050740429       35.1341345671        0.1856328663
  H        16.1437858800        3.0130143313       11.8988286768
  H        14.9742229229        4.8563903353       10.6830697015
  H        17.3958090715        7.7473240209       12.7503017117
  H        18.5428768770        5.8933630388       13.9779559027
  H        16.7648857581        5.7557220904        9.2142069024
  H        36.2786314891       34.4825101246       14.2681960786
  H        36.3808923145       34.2091586612        1.5047043614
  H        40.5801669792       33.2024767631       13.1486195266
  H        17.4705968423        1.9473568686       15.9690295315
  H        29.3957973692       19.5543007777        4.5920854157
  H        28.9114918989       18.9037812434       11.7930461199
  H        30.7136950850       15.5351612116       11.8285382918
  H        31.1839916469       15.5870860917        4.5675026611
  H        28.2661735943       18.3673105296        6.7503475091
  H        29.2859497958       15.4700160734        6.4195162526
  H        30.7627701982       19.8532792945       10.2055185353
  H        29.1503140022       16.4733300520        9.9249367689
  H        18.8531342133        0.8689882314        4.3403454080
  H        40.5279779621       35.2290430799       11.9469829380
  H        42.3239217315       34.4187603952       11.5854929814
  H        22.0876826498        0.6920853852        4.3567987714
  H        11.5969946802       18.7126411376        4.3873969619
  H        52.2648854931       18.4310692093       11.6723490762
  H        49.2552289830       16.4770433362       11.5794872288
  H        10.1496323851       15.7982600649        4.2981321917
  H        50.8500064608       17.6923706672       11.9492106210
  H        10.0457367297       17.3945373169        4.0570653771
  H        20.2142264162        0.0021456923        4.0472027230
  H        39.1836860138       36.1243886937       11.6811545040
 Ni        30.8618416238       17.7120916634       11.0744407324
 Ni        30.6889025125       16.5020886372        8.1616348861
 Ni        30.1402783709       18.8167080142        8.1602217529
 Ni        30.0600425244       17.4487645225        5.2456359349
  O        10.6498945385       14.3651420540       13.4807225953
  O        12.6131461205       14.6575317698       14.5788048505
  O        49.1478938359       16.8459630725       15.9846996132
  O        50.3502327927       20.9358416156       13.6430404570
  O        48.3485590551       20.5932720872       14.6608886555
  O        11.0514841357       17.0539043010       14.4955197984
  O        50.3209903177       20.8816587182        2.4119431054
  O        48.3467407554       20.5867197678        1.3322340648
  O        49.5435895541       18.2485181874        2.0733760977
  O        12.3589394081       18.6245723918        0.0048420239
  O        48.6931940831       14.1486043163       14.7461696614
  O         8.2098439223       14.2104482477        1.3276555544
  O        10.7353587071       14.5067770950        2.6694334724
  O        12.5717945947       14.5828612795        1.3335929912
  O        22.8445179728        2.0429436254       13.4821790860
  O        21.6053393948        3.5922107386       14.5847549420
  O        42.0581726010       34.1373625191       15.9739213677
  O        37.9818055306       33.1391737560       13.5677765958
  O        39.2180952812       31.5765581154       14.6615550003
  O        20.3084488106        1.0396180282       14.4969444741
  O        38.0248803049       33.1863385789        2.4200473547
  O        39.2189851253       31.5836819446        1.3317597140
  O        40.6523205588       33.7693311191        2.0653846098
  O        18.2553217216        1.3762464625        0.0019106441
  O        44.6222393315       35.1005268561       14.7536583417
  O        24.2054166701        0.0000180140        1.3259149428
  O        22.7529452139        2.0575152848        2.5887957219
  O        21.6243230651        3.5959681861        1.3475655136
  O        27.5013971963       18.7522340703       13.4851369388
  O        26.7597723150       16.9407013841       14.6474663493
  O        30.6700607742       19.4086370832        0.0821447685
  O        33.5881967034       16.2776229490       13.6657432738
  O        34.2745519706       18.1698971311       14.7329909078
  O        29.5728249757       17.0673199541       14.5827351012
  O        33.5543772326       16.3395419170        2.4256200964
  O        34.3026647496       18.2387169896        1.4157624084
  O        31.6529215540       18.3134926532        2.1618602715
  O        30.3204581697       15.1522808735        0.1027662709
  O        28.5529566828       21.0352772977       14.8990178756
  O        28.5152044588       20.9566386944        1.4191999618
  O        27.4584281763       18.6790349998        2.6643555118
  O        26.6945700789       16.9289250631        1.4173537603
  O        13.1487110436       18.6930119091        2.5925472085
  O        13.9194390792       16.9161899318        1.4101276070
  O        50.5958868731       19.3501908379        0.0256165257
  O        47.6829456048       16.3270519326        2.4224322245
  O        46.9506989662       18.1755997752        1.3304140105
  O        11.0695992003       17.0156068847        1.4947654545
  O        47.6755497204       16.3359507641       13.6475168245
  O        46.9268289726       18.2358365740       14.6591867132
  O        49.5685309060       18.3177507308       13.9771943111
  O        10.3185762277       15.1002246043        0.0021649874
  O        52.6707324231       21.0278731967        1.2469313018
  O        12.1468303359       20.8911401049       14.6680960130
  O        13.1083378063       18.6136238343       13.3204121958
  O        13.9572857652       16.9869939968       14.6602798288
  O        29.9922627916       14.4387093096        2.7358301149
  O        28.0889448715       14.6539000867        1.5001434052
  O        32.1351901085       16.8624838091        0.1045600333
  O        30.9628506817       20.9520401294        2.4164086950
  O        32.9454279105       20.6049813608        1.3487393930
  O        29.5657954863       17.0772797549        1.5818507149
  O        30.8772587661       20.9502345021       13.6633894933
  O        32.8819993686       20.5842720975       14.6641392589
  O        31.6858194454       18.2565019196       13.9966972061
  O        28.2872899679       18.6780243828        0.0841134061
  O        32.4915804913       14.2135615930        1.3389313920
  O        32.4076963313       14.2068361600       14.8238698979
  O        29.9146091767       14.4344837338       13.4883862043
  O        28.0372046598       14.5888836370       14.7492607754
  O        17.8892210409        1.9666715064        2.6679401114
  O        18.9562084257        3.5271655870        1.4131058332
  O        39.1686757149       34.1388755477        0.0023027815
  O        43.2802043736       33.0589388683        2.3368305335
  O        42.0345427292       31.5064328761        1.2467433987
  O        20.3176751764        1.0367238543        1.4853422791
  O        43.2760770037       33.1825568574       13.5698034270
  O        42.0052527669       31.5841260588       14.5778791937
  O        40.5790477968       33.7750423814       13.9308264268
  O        22.3672808071        1.3845456498        0.0030900850
  O        36.6727274759       35.0997947449        1.2383292348
  O        16.4455132088        0.0643963461       14.6632615954
  O        17.9364719178        2.0434508056       13.3212524605
  O        18.9190157756        3.5931951583       14.6608326192
  O        29.8167049560       18.9767045330       12.1499675427
  O        29.8637810366       18.9115884702        4.0273237607
  O        31.2277177498       16.2697209630       12.2200125128
  O        31.2081646833       16.4273317762        4.0697669703
  O        30.0827875575       16.1883410245        9.9071565768
  O        30.1576704842       15.9010219275        6.4069260361
  O        31.6803091340       17.9547222514        7.2525296770
  O        31.1217796962       19.0676816380        9.7466541509
  O        29.1886312985       18.6081281881        6.5643103454
  O        39.4568035351       35.2438076714       11.9968236265
  O        19.1410062941        0.0044828776        3.9956941122
  O        41.9696198244       35.1726933294       12.0821013684
  O        21.6912782220       -0.0692901127        3.9010996115
  O        51.3650683650       18.6142939166       12.0003806424
  O        10.7511339822       18.7471294610        3.9099961613
  O        50.0797372721       16.4128309702       12.0866566129
  O         9.5239694144       16.4831670032        3.9963291322
 Zr         9.2963596924       16.0528137725       14.1772967559
 Zr        49.8359468279       16.0068057300        1.7516423417
 Zr        22.0732651628        0.0296550733       14.1840128058
 Zr        42.4609015769       35.1532859190        1.8061323288
 Zr        29.6132405023       19.1073577796       14.3157509521
 Zr        29.5814070401       19.1704449498        1.8814804392
 Zr        11.0375853987       19.0520708927        1.8327649118
 Zr        11.0434775633       19.1548557061       14.2461736787
 Zr        31.3375244825       16.1035896533        1.9079278279
 Zr        31.4038854361       16.0077790310       14.3338830992
 Zr        18.6010625232       -0.0014566208        1.7684137901
 Zr        18.5064804157       -0.0075209337       14.2086444743
 Zr        12.3015624512       16.3235602401       15.9851752834
 Zr        48.6156837268       18.8329365121        0.0155712633
 Zr        20.3150399548        2.4732023172       15.9854694178
 Zr        40.6434545320       32.6870018297       15.9732508423
 Zr        28.3439795974       16.3425622360        0.0853749014
 Zr        32.6383759456       18.8412152981        0.0726766445
  H        32.5025660106       18.2022195361        7.7114313574
  H        28.9263940773       19.2523323200        8.8458374185
