     571
 i =      180, E =     -4761.6216485794
  C        11.8586417979       14.0535374254       13.7364816948
  C        12.4560750974       12.8904682091       13.0183034256
  C        11.7044788981       12.1718581392       12.0763261330
  C        12.2808134440       11.1096470082       11.3839428981
  C        13.6212595797       10.7395438332       11.6119461349
  C        14.3542797536       11.4427553743       12.5857937726
  C        13.7814446764       12.5077387558       13.2773347136
  C        14.2608430038        9.6489461917       10.8385109904
  C        14.2562378052        9.6569246649        9.4168045300
  C        13.7430646636       10.7590349200        8.6628772306
  C        49.1266363342       21.2332783106       13.8746254223
  C        48.5498747321       22.4011477875       13.1475411317
  C        49.2999889214       23.0685861897       12.1666733046
  C        48.7330656601       24.1077138767       11.4334694422
  C        47.4024598595       24.5092326891       11.6619511232
  C        46.6714056267       23.8602183237       12.6753015271
  C        47.2338426103       22.8153201923       13.4046715680
  C        46.7722785144       25.5869466142       10.8646601257
  C        46.7614375823       25.5574019313        9.4428963302
  C        47.2614415802       24.4423393055        8.6994020265
  C        14.8602803850        8.5706406231        8.7035371626
  C        14.8915841425        8.5969583496       11.5151422109
  C        49.1130492435       21.2034515611        2.1504843542
  C        48.5276878281       22.3647482460        2.8776271688
  C        49.2670674319       23.0256853533        3.8702948812
  C        48.6907606261       24.0602345519        4.6017628422
  C        47.3602436522       24.4568160044        4.3637501605
  C        46.6396763156       23.8116923579        3.3404707611
  C        47.2131965360       22.7757719298        2.6086797204
  C        46.7218709365       25.5318305475        5.1547702776
  C        46.7337097809       25.5282381815        6.5764694674
  C        47.2492055978       24.4290519364        7.3328478057
  C        40.6204652661       17.0926584943        7.3155881201
  C        40.6311030570       17.0977485269        4.5058729375
  C        11.8828907118       14.0865251643        2.2905464887
  C        12.4721232394       12.9105852297        2.9946696224
  C        11.7146678603       12.1776133724        3.9210127561
  C        12.2812102477       11.0951472562        4.5894569264
  C        13.6199333542       10.7211807585        4.3574539680
  C        14.3577695818       11.4364169132        3.3962935709
  C        13.7923974659       12.5175932282        2.7235717968
  C        14.2535616469        9.6244856346        5.1279115883
  C        14.2523982422        9.6445525377        6.5497527767
  C        13.7425077722       10.7534944195        7.2968291046
  C        22.5104671348        3.2442548707       13.7474843812
  C        23.2220024738        4.3504278715       13.0462944066
  C        24.2187345155        4.0720516966       12.0994879124
  C        24.8426734123        5.1127573611       11.4164618895
  C        24.4852746625        6.4537515618       11.6601523922
  C        23.5165849971        6.7237428552       12.6438558024
  C        22.8881699661        5.6848627408       13.3253643055
  C        25.0894265690        7.5608365092       10.8844719794
  C        25.0653574196        7.5523286293        9.4629441186
  C        24.3640289464        6.5527005890        8.7165145840
  C        38.3022638211       31.9302548450       13.8445714623
  C        37.5716925050       30.8412249279       13.1361500792
  C        36.6102209628       31.1454371199       12.1603972240
  C        35.9920932225       30.1253099923       11.4429124770
  C        36.3211076118       28.7762789964       11.6795992388
  C        37.2527228677       28.4794805177       12.6921067952
  C        37.8747525267       29.4983014296       13.4086586440
  C        35.7182713151       27.6851605392       10.8824576796
  C        35.7469141305       27.7017647115        9.4611826551
  C        36.4520310844       28.7047726626        8.7240974318
  C        25.6914820657        8.6206475293        8.7433504993
  C        25.6836011964        8.6370943707       11.5554296904
  C        38.3287967243       31.9620431144        2.1617484135
  C        37.6071640914       30.8894869559        2.9043805931
  C        36.6774994319       31.1993091952        3.9088869377
  C        36.0664190468       30.1817110100        4.6388258727
  C        36.3706322996       28.8286908366        4.3879853164
  C        37.2783197761       28.5288437443        3.3536688722
  C        37.8914901576       29.5429524956        2.6249078271
  C        35.7609056849       27.7305541656        5.1722663952
  C        35.7685807683       27.7251018994        6.5943390892
  C        36.4620476098       28.7161772745        7.3575922276
  C        46.1357066911       26.6208768250        7.2866001943
  C        46.0878168690       26.5801139126        4.4787004386
  C        22.4606411926        3.2555358289        2.2621722684
  C        23.1546608833        4.3644812132        2.9844039828
  C        24.1577553433        4.0787487427        3.9241336504
  C        24.7855416440        5.1092460933        4.6195749042
  C        24.4301806087        6.4547092234        4.3975315500
  C        23.4502215163        6.7337950590        3.4262422137
  C        22.8177564953        5.7035165737        2.7313512380
  C        25.0606388815        7.5527464433        5.1716837171
  C        25.0513939903        7.5473216720        6.5942985842
  C        24.3553259875        6.5515704844        7.3499053362
  C        26.6050470457       17.8942259377       13.7756333625
  C        25.3017203818       17.9518683654       13.0483954406
  C        25.0460116904       18.9512860666       12.0964175138
  C        23.8332726539       18.9754730711       11.4099913780
  C        22.8414257271       18.0039132048       11.6541367775
  C        23.0929378415       17.0287871943       12.6378030119
  C        24.3065322893       16.9991852956       13.3217239399
  C        21.5702949509       17.9876323561       10.8882576440
  C        21.5726021500       17.9665754388        9.4659439154
  C        22.7798298395       17.8510579169        8.7067361628
  C        34.4367611776       17.1929069715       13.9127980791
  C        35.7301551421       17.1399184049       13.1700983337
  C        35.9315144470       16.1734534489       12.1721471952
  C        37.1119604553       16.1594143303       11.4343675878
  C        38.1233357793       17.1102986198       11.6737783069
  C        37.9247901757       18.0563372070       12.6976548804
  C        36.7417313158       18.0761306949       13.4328260191
  C        39.3762041948       17.1187546170       10.8843550715
  C        39.3686869194       17.1254711460        9.4622467759
  C        38.1600892636       17.2442000918        8.7064071284
  C        20.3264253233       17.9741219069        8.7568431120
  C        20.3454921777       17.9803086319       11.5702152706
  C        34.4395118371       17.2365428684        2.1979124696
  C        35.7402886485       17.1335187107        2.9187835105
  C        35.9402988290       16.1604377038        3.9093275209
  C        37.1314880204       16.1282187157        4.6303571932
  C        38.1511734360       17.0679342778        4.3812152515
  C        37.9572151042       18.0125729308        3.3557814617
  C        36.7657634096       18.0500794041        2.6380388306
  C        39.4008461421       17.0856170904        5.1736651079
  C        39.3812417937       17.1086400643        6.5951289309
  C        38.1660698067       17.2345106151        7.3397977908
  C        35.1366818307       26.6466254188        7.2983725275
  C        35.1715622134       26.6593736334        4.4892126813
  C        26.5718307337       17.8307549173        2.3290647835
  C        25.2550636088       17.8820153538        3.0317604617
  C        24.9864357569       18.9025401020        3.9565241141
  C        23.7686738183       18.9349423797        4.6303626013
  C        22.7900888776       17.9468557709        4.4025039929
  C        23.0523816873       16.9514678747        3.4438682177
  C        24.2709286572       16.9171623264        2.7681854928
  C        21.5264333122       17.9344888482        5.1760609475
  C        21.5496130556       17.9379861989        6.5975672080
  C        22.7685325274       17.8370530617        7.3406024551
  C        14.0457393847       17.8297324706        2.2928648741
  C        15.3500828106       17.8900357584        3.0171157366
  C        15.6046109557       18.8967973098        3.9613584630
  C        16.8137571691       18.9223818257        4.6532383412
  C        17.8018638204       17.9440336187        4.4225803978
  C        17.5519028905       16.9610601158        3.4465605015
  C        16.3420812772       16.9310131910        2.7561357200
  C        19.0705962565       17.9333892810        5.1911680632
  C        19.0682616774       17.9375372508        6.6134922615
  C        17.8611931850       17.8346019059        7.3742316056
  C        46.8024164805       17.2161928931        2.1622685779
  C        45.5092562846       17.1459651190        2.9030788622
  C        45.3078105115       16.1675089193        3.8891567699
  C        44.1240520240       16.1399719948        4.6218744159
  C        43.1102866729       17.0904828294        4.3911962332
  C        43.3083194191       18.0472592307        3.3770657226
  C        44.4932043625       18.0790495434        2.6454101498
  C        41.8571248344       17.0952766436        5.1813775375
  C        41.8656851801       17.1046143508        6.6036890491
  C        43.0756517559       17.2091239552        7.3595171397
  C        20.3144633874       17.9596778412        7.3221015998
  C        20.2948194291       17.9135774507        4.5092971573
  C        46.7851560237       17.2325471354       13.8812839821
  C        45.4838126297       17.1293503792       13.1612602706
  C        45.2671219094       16.1334493179       12.1966847257
  C        44.0798610151       16.1071463776       11.4689349514
  C        43.0789706710       17.0738211072       11.6878274352
  C        43.2868885827       18.0405635681       12.6895116483
  C        44.4751583294       18.0731428367       13.4126069907
  C        41.8311586473       17.0934803929       10.8925988297
  C        41.8525690089       17.1026197990        9.4712548199
  C        43.0695383799       17.2051175380        8.7263521310
  C        46.1534383192       26.6372881390        8.7211460557
  C        46.1622416234       26.6560168050       11.5307857743
  C        14.0446456304       17.8332024445       13.7039285152
  C        15.3647691786       17.9133838329       13.0124497020
  C        15.6313199073       18.9328956339       12.0862878997
  C        16.8584492669       18.9780571156       11.4287246949
  C        17.8466539912       18.0032346739       11.6722131377
  C        17.5868678744       17.0122828699       12.6363658111
  C        16.3614170892       16.9664091337       13.2972562803
  C        19.1136602681       17.9888593013       10.9027306308
  C        19.0908501719       17.9652623229        9.4812317530
  C        17.8721605596       17.8469532076        8.7402625141
  C        28.8099733584       14.0918232022        2.3956605583
  C        28.1973587892       12.9172741970        3.0814401759
  C        28.9242010192       12.1674224086        4.0178615159
  C        28.3245090618       11.0926364341        4.6694954797
  C        26.9843411641       10.7434736726        4.4077007748
  C        26.2790688250       11.4728732749        3.4337931185
  C        26.8763429833       12.5482337781        2.7811473705
  C        26.3150948360        9.6637358240        5.1690852508
  C        26.3031734414        9.6897539926        6.5900448168
  C        26.8122040941       10.8002272303        7.3354563605
  C        32.1790388653       21.2403479491        2.1540670540
  C        32.7721699902       22.4064471360        2.8722505294
  C        32.0215715981       23.0884650100        3.8422917578
  C        32.5909703829       24.1287342068        4.5699437883
  C        33.9267942398       24.5152038210        4.3482239393
  C        34.6600151465       23.8524421544        3.3459493534
  C        34.0929914398       22.8065739558        2.6203240299
  C        34.5545813984       25.5909276242        5.1488693646
  C        34.5436369479       25.5634158788        6.5706045979
  C        34.0308715058       24.4500431605        7.3086997149
  C        25.6893781280        8.6142103803        7.3088297464
  C        25.6770181582        8.6142351609        4.4955086219
  C        32.1050342297       21.2284054402       13.8812101998
  C        32.6946937575       22.3810050051       13.1392230098
  C        31.9561388907       23.0445151925       12.1472851341
  C        32.5350182816       24.0735434681       11.4084643913
  C        33.8659601620       24.4697492669       11.6446724979
  C        34.5871954926       23.8204267239       12.6649262589
  C        34.0133434476       22.7851419519       13.3982448394
  C        34.5044987787       25.5511022314       10.8593198647
  C        34.5169674307       25.5435034506        9.4373228089
  C        34.0169930177       24.4409276737        8.6753767562
  C        40.6135045689       17.0967291009        8.7504407654
  C        40.6016925515       17.1187797194       11.5605926546
  C        28.7327206100       14.0645570788       13.8175086895
  C        28.1187942135       12.9234644803       13.0766814675
  C        28.8576600078       12.2194546173       12.1130962920
  C        28.2752602919       11.1662282367       11.4124074228
  C        26.9386977205       10.7886557437       11.6516172441
  C        26.2165933873       11.4797472357       12.6426812296
  C        26.7966802437       12.5350244997       13.3440296202
  C        26.2983539783        9.6979691325       10.8781347523
  C        26.2958410135        9.7077649741        9.4563143535
  C        26.8062316773       10.8101697485        8.7012608042
  C        18.1353636119        3.1809307290        2.3222802749
  C        17.4060039238        4.2781950943        3.0208988070
  C        16.3903547688        3.9998067933        3.9484713878
  C        15.7425918537        5.0397784131        4.6119606187
  C        16.0944274330        6.3835005434        4.3722131884
  C        17.0837209945        6.6530482790        3.4083709362
  C        17.7328471630        5.6157165774        2.7433348211
  C        15.4701071755        7.4912072365        5.1352465873
  C        15.4854979779        7.4906199985        6.5569551385
  C        16.1871243273        6.4970527355        7.3101221099
  C        42.9459205459       31.8594824291        2.0779702340
  C        43.6462924089       30.7718345876        2.8219254601
  C        44.5920035585       31.0931463107        3.8078286663
  C        45.1977019277       30.0875939323        4.5554855140
  C        44.8710725456       28.7345522440        4.3407917648
  C        43.9450554578       28.4202155216        3.3277579399
  C        43.3362467992       29.4253648320        2.5797218197
  C        45.4886816583       27.6552701950        5.1439817365
  C        45.4929451250       27.6809615449        6.5656706618
  C        44.8058775004       28.6890294141        7.3122820589
  C        14.8564871874        8.5630920797        7.2693109449
  C        14.8747259144        8.5629053739        4.4566440519
  C        42.9464357938       31.9615455932       13.8038557267
  C        43.6916295004       30.8854332834       13.0903399383
  C        44.6563881060       31.1913343924       12.1181975568
  C        45.2779068266       30.1717373603       11.4004871560
  C        44.9539466682       28.8214351942       11.6379667505
  C        44.0202502816       28.5237695712       12.6485438233
  C        43.3919949622       29.5405436447       13.3607131466
  C        45.5630158272       27.7240468606       10.8527263848
  C        45.5334343416       27.7174291161        9.4314274044
  C        44.8271291309       28.7076652862        8.6784658640
  C        35.1243961711       26.6355419750        8.7331474690
  C        35.1164097816       26.6084160752       11.5430012969
  C        18.1485166162        3.2469531068       13.7015191122
  C        17.4299345003        4.3438276208       12.9921887943
  C        16.4147635872        4.0525475629       12.0685956378
  C        15.7664492658        5.0831724934       11.3931857549
  C        16.1210533532        6.4284045865       11.6159878271
  C        17.1123892495        6.7118055441       12.5732839472
  C        17.7600524028        5.6828885683       13.2530556030
  C        15.4905550496        7.5241119325       10.8435547383
  C        15.4965274824        7.5075474704        9.4224199461
  C        16.1933672069        6.5058941826        8.6757260793
  H        10.6724435980       12.4662112418       11.8991128785
  H        11.6945633195       10.5513713613       10.6572134631
  H        15.3911774775       11.1678424972       12.7678057630
  H        14.3507892615       13.0707082099       14.0130591350
  H        13.3759518309       11.6311220814        9.1961777343
  H        50.3227433648       22.7486435601       11.9820392912
  H        49.3195904513       24.6230813198       10.6759939089
  H        45.6418445971       24.1608462923       12.8583209248
  H        46.6627226626       22.2899717825       14.1666117331
  H        47.6299398341       23.5759409513        9.2410799592
  H        14.8717923220        8.5881108776       12.6034455932
  H        50.2871894231       22.7029842529        4.0650348453
  H        49.2692162487       24.5758375398        5.3651175144
  H        45.6101613949       24.1087074490        3.1516491634
  H        46.6521931271       22.2533961446        1.8373913973
  H        47.6079695041       23.5519214145        6.8019586306
  H        40.6348051387       17.0571792594        3.4182756143
  H        48.6869366317       14.0949805901       15.7949134297
  H        10.6812586877       12.4668380714        4.0985406051
  H        11.6894288392       10.5248984830        5.3022806140
  H        15.3930866939       11.1582589738        3.2101285807
  H        14.3646449752       13.0867236477        1.9947817181
  H        13.3755923001       11.6220677776        6.7581869308
  H        47.9301669896       14.2181747657        1.7160232137
  H        47.7798741222       14.3730762229       14.4899792761
  H        49.0825338702       18.5519639644        2.8721418923
  H        10.4157368248       14.1343517899        0.0038916841
  H        24.4821506496        3.0339596608       11.9093208347
  H        25.6160870224        4.8970023584       10.6825038317
  H        23.2333057065        7.7561127743       12.8382071102
  H        22.1180798790        5.8834692718       14.0667334428
  H        23.8012693944        5.7968762783        9.2565653821
  H        36.3724667241       32.1886862184       11.9664866226
  H        35.2460729171       30.3640358744       10.6881126990
  H        37.5138017887       27.4403576508       12.8815490616
  H        38.6197741179       29.2776384271       14.1693780488
  H        37.0173485569       29.4543411357        9.2701587239
  H        25.7149642441        8.6218201358       12.6433842582
  H        36.4545778021       32.2437559237        4.1148924834
  H        35.3399161461       30.4276021198        5.4101541890
  H        37.5252869490       27.4883634142        3.1532903074
  H        38.6145602497       29.3162198190        1.8452137699
  H        37.0361285613       29.4740763120        6.8323922257
  H        46.1090673255       26.5874208209        3.3906610777
  H        44.6682047338       35.1161597148       15.8088633778
  H        24.4359941880        3.0406142495        4.0910344429
  H        25.5669637897        4.8811252980        5.3413236693
  H        23.1645978540        7.7681915454        3.2461371016
  H        22.0452103671        5.9156497429        1.9958594786
  H        23.7852388560        5.7954493820        6.8179174919
  H        44.9537036961       34.3902445620        1.7001703360
  H        44.9016626927       34.2067775010       14.4855151379
  H        40.6657634529       33.2088068107        2.8581535445
  H        23.1503274797        1.9577832605        0.0101549217
  H        25.8061041109       19.7068337003       11.9104574328
  H        23.6389890082       19.7566428751       10.6781367609
  H        22.3378940545       16.2705875070       12.8353510626
  H        24.5121563494       16.2332273250       14.0657954365
  H        23.7213287680       17.7413038667        9.2369079978
  H        35.1449790614       15.4467470813       11.9826322112
  H        37.2661873750       15.4026068923       10.6683499692
  H        38.6970115186       18.7990413810       12.8872445351
  H        36.5723924617       18.8220353783       14.2059663389
  H        37.2220973447       17.3743727866        9.2385632069
  H        20.3513840919       18.0190507860       12.6581180952
  H        35.1445219427       15.4478330949        4.1136261646
  H        37.2840991219       15.3708914301        5.3961600793
  H        38.7374590802       18.7443525972        3.1570689995
  H        36.5962843734       18.7988882181        1.8681801320
  H        37.2323955004       17.3570089291        6.7984605971
  H        35.1461057186       26.6839450782        3.4014295399
  H        28.5062080019       21.0902446837       15.9687075763
  H        25.7450495913       19.6631928195        4.1270977128
  H        23.5599074265       19.7305023306        5.3424596644
  H        22.3046484145       16.1821739373        3.2620237790
  H        24.4892541808       16.1370133446        2.0428022768
  H        23.7010720026       17.7165689928        6.7973985754
  H        29.0133316799       21.7196672080        1.7602889238
  H        29.1486440437       21.7504070729       14.6084391075
  H        32.0529151298       18.5602274185        3.0079293783
  H        27.4039089790       19.0836970800        0.0967193367
  H        14.8443216211       19.6544575233        4.1374089479
  H        17.0081020843       19.7090522273        5.3791134981
  H        18.3046756875       16.1977657225        3.2604272713
  H        16.1367542959       16.1592812106        2.0180694328
  H        16.9197747442       17.7119874892        6.8466302381
  H        46.0964276411       15.4422231216        4.0752176910
  H        43.9703550868       15.3738944856        5.3787323035
  H        42.5340703792       18.7892850217        3.1932350290
  H        44.6611900555       18.8330620095        1.8799027168
  H        44.0158497168       17.3238181501        6.8277352532
  H        20.2887663822       17.9351248410        3.4209821810
  H        46.0444017599       15.3936060814       12.0194413608
  H        43.9148402013       15.3333366929       10.7223566672
  H        42.5198077970       18.7918620293       12.8653548358
  H        44.6557930219       18.8383324643       14.1635713838
  H        44.0051743178       17.3155351454        9.2669026791
  H        46.1989243511       26.6824891261       12.6182377163
  H        52.7410194636       21.0626484345        0.1997149046
  H        14.8667419438       19.6835151943       11.8987046206
  H        17.0644377161       19.7715415297       10.7135532890
  H        18.3416077299       16.2532462733       12.8316644386
  H        16.1452978876       16.1887023621       14.0257876439
  H        16.9391490774       17.7338904551        9.2841688668
  H        52.3221425529       21.6732968103       14.2894711646
  H        52.0132861164       21.7021689963        1.5007809189
  H        49.0671431952       18.6078175494       13.1990248149
  H        13.2470686430       19.0168557785       15.9722059396
  H        29.9568492300       12.4414624711        4.2215584886
  H        28.8893408248       10.5107735444        5.3946905529
  H        25.2435050433       11.2126236011        3.2245458761
  H        26.3296537527       13.1330833165        2.0455333124
  H        27.1827056602       11.6655643186        6.7942309699
  H        30.9952577981       22.7783312869        4.0221435712
  H        32.0039680652       24.6558087431        5.3188733589
  H        35.6939958777       24.1416870738        3.1694600250
  H        34.6649008180       22.2693287502        1.8672969098
  H        33.6721972265       23.5820082264        6.7629173561
  H        25.7064374324        8.5953343094        3.4074866622
  H        30.9303919781       22.7337961837       11.9625169016
  H        31.9561282974       24.5882122888       10.6446887192
  H        35.6175363753       24.1155685621       12.8523989003
  H        34.5757943751       22.2608917782       14.1673281872
  H        33.6477527321       23.5656354099        9.2024155051
  H        40.5974889147       17.0843655364       12.6483830812
  H        32.5135039991       14.1472290385        0.2615573772
  H        29.8912559908       12.5060595953       11.9326922157
  H        28.8561761951       10.6165363612       10.6749617003
  H        25.1825548573       11.2003881760       12.8342146321
  H        26.2361838365       13.0836917261       14.0973152365
  H        27.1709277567       11.6836191450        9.2337897288
  H        33.2981322556       14.2078589323       14.4392425409
  H        33.4063380094       14.4026740157        1.6109704012
  H        32.1642705426       18.5473600585       13.2005437536
  H        30.2281176604       14.1903383826        0.0909184919
  H        16.1183555592        2.9632888313        4.1348989158
  H        14.9531495787        4.8203728490        5.3276243125
  H        17.3660300691        7.6859399318        3.2151698145
  H        18.5147933466        5.8183422871        2.0153831523
  H        16.7536720268        5.7397122871        6.7766124867
  H        44.8284377194       32.1402147477        3.9818825775
  H        45.9377184383       30.3413124970        5.3112939232
  H        43.6821739464       27.3781666497        3.1577993473
  H        42.5994725090       29.1900178624        1.8152129625
  H        44.2304951492       29.4367665201        6.7739646072
  H        14.8508323321        8.5460390311        3.3684274405
  H        44.9000758574       32.2340038810       11.9268732590
  H        46.0249378569       30.4129344777       10.6473652122
  H        43.7630888926       27.4840597951       12.8399480066
  H        42.6453467046       29.3177431079       14.1190101113
  H        44.2685740986       29.4705194278        9.2130472157
  H        35.0767173073       26.6192860738       12.6305847678
  H        36.6050544122       35.1340345899        0.1856964699
  H        16.1437313352        3.0129596931       11.8988451774
  H        14.9741486866        4.8563145110       10.6830737678
  H        17.3958198209        7.7472840850       12.7502281583
  H        18.5428750414        5.8933038565       13.9778896041
  H        16.7647885943        5.7556546523        9.2141807467
  H        36.2785088521       34.4825262985       14.2681511899
  H        36.3806885662       34.2092313778        1.5048312925
  H        40.5800717973       33.2023142536       13.1486285298
  H        17.4705660509        1.9471974611       15.9690143452
  H        29.4129700076       19.5646085997        4.5820667985
  H        28.8417815987       18.7916430450       11.8928055312
  H        30.6706979729       15.4454743020       11.8064365284
  H        31.1676579258       15.6387746243        4.5639911299
  H        28.2899606504       18.4676582130        6.6232750310
  H        29.4479547244       15.7326159890        6.7101617730
  H        30.4139205856       19.8174431738       10.3793975688
  H        29.3344843303       16.2265367788        9.5912980302
  H        18.8531407960        0.8689943883        4.3403308775
  H        40.5280067694       35.2290933606       11.9469747583
  H        42.3238931147       34.4187668205       11.5854754245
  H        22.0877659814        0.6921889095        4.3566814941
  H        11.5969045840       18.7127680549        4.3874225451
  H        52.2647401301       18.4309573908       11.6724286148
  H        49.2553527815       16.4767473935       11.5793077860
  H        10.1502954788       15.7982377875        4.2977951722
  H        50.8498321543       17.6923926535       11.9491431587
  H        10.0460364363       17.3946243473        4.0570410631
  H        20.2142700493        0.0022060136        4.0471823496
  H        39.1837045770       36.1244458594       11.6811961704
 Ni        30.6059249261       17.6222229648       10.9882176672
 Ni        31.0326550584       16.8370563506        8.0817361059
 Ni        30.0556899082       19.0114424507        8.1602037124
 Ni        30.1019803238       17.5169625775        5.2476626085
  O        10.6499152179       14.3651350067       13.4807342359
  O        12.6131351169       14.6575565433       14.5788182343
  O        49.1478313995       16.8459833980       15.9846769972
  O        50.3501601336       20.9359818684       13.6430641744
  O        48.3485554529       20.5932343877       14.6608785014
  O        11.0513040545       17.0539283287       14.4955908742
  O        50.3209154307       20.8816537546        2.4119361686
  O        48.3467063764       20.5867085982        1.3322150139
  O        49.5435518197       18.2484865861        2.0734095143
  O        12.3588462695       18.6245692195        0.0047497619
  O        48.6932093823       14.1486189266       14.7461819337
  O         8.2098730719       14.2104285596        1.3276405015
  O        10.7353368818       14.5067559532        2.6694071451
  O        12.5717909577       14.5828308396        1.3335668852
  O        22.8445383333        2.0434214061       13.4820310926
  O        21.6050062889        3.5920649784       14.5850078268
  O        42.0581704346       34.1373022278       15.9738893176
  O        37.9818104054       33.1386586290       13.5676529655
  O        39.2181901953       31.5764459412       14.6616085363
  O        20.3083951324        1.0395265596       14.4969187758
  O        38.0247505653       33.1859890673        2.4201833056
  O        39.2190334483       31.5836661180        1.3317031236
  O        40.6522926799       33.7693174596        2.0654048618
  O        18.2553458013        1.3761592766        0.0019216471
  O        44.6222142968       35.1005559774       14.7536468156
  O        24.2054079207        0.0000141656        1.3259199771
  O        22.7529625132        2.0577295985        2.5888254460
  O        21.6242417440        3.5958889449        1.3473914161
  O        27.5045779175       18.7617493302       13.4799353462
  O        26.7308775602       16.9869510596       14.6612786270
  O        30.6719713433       19.4086215713        0.0806987276
  O        33.5782945975       16.2793796100       13.6594558857
  O        34.2751792325       18.1668199708       14.7308512327
  O        29.5678993199       17.0669145314       14.5866419052
  O        33.5517310343       16.3399300568        2.4256806445
  O        34.3026257339       18.2377144898        1.4151159597
  O        31.6543670744       18.3139002357        2.1557048186
  O        30.3215995567       15.1572065339        0.0949021966
  O        28.5530012629       21.0360724606       14.8991025531
  O        28.5148571058       20.9574623544        1.4187445906
  O        27.4588144537       18.6799336633        2.6636228463
  O        26.6938850978       16.9294313641        1.4188737113
  O        13.1478004033       18.6932996998        2.5921454973
  O        13.9192956088       16.9162275609        1.4100619880
  O        50.5957299667       19.3501978946        0.0255736679
  O        47.6829324506       16.3270067818        2.4224004855
  O        46.9503253576       18.1755089325        1.3306064492
  O        11.0694916641       17.0155910279        1.4947068787
  O        47.6755986711       16.3359132888       13.6476186947
  O        46.9262486370       18.2358060034       14.6588340361
  O        49.5684076649       18.3177722142       13.9771677166
  O        10.3185575369       15.1002182734        0.0022188893
  O        52.6707183849       21.0278971119        1.2469138944
  O        12.1467812948       20.8912251400       14.6681704570
  O        13.1067589281       18.6141564417       13.3206885334
  O        13.9572470882       16.9874198531       14.6595516475
  O        29.9949020780       14.4421683701        2.7341688573
  O        28.0898646352       14.6545663392        1.4995177548
  O        32.1293836359       16.8625366290        0.0939834557
  O        30.9630879811       20.9514107107        2.4155801441
  O        32.9456354409       20.6029281249        1.3466263034
  O        29.5635988378       17.0778401857        1.5787836088
  O        30.8751255524       20.9453313360       13.6600147496
  O        32.8798647523       20.5842891571       14.6635187348
  O        31.6826539007       18.2518450304       13.9905223886
  O        28.2869777621       18.6800035215        0.0843908215
  O        32.4903042265       14.2144449916        1.3365297831
  O        32.4044803657       14.2119356882       14.8209386941
  O        29.9111532343       14.4277835246       13.4929261716
  O        28.0306679093       14.5963242013       14.7478729404
  O        17.8891829765        1.9666337028        2.6679280256
  O        18.9561699936        3.5271498068        1.4131084450
  O        39.1686966094       34.1388734835        0.0022966007
  O        43.2802237629       33.0589419660        2.3368139679
  O        42.0345448712       31.5064412495        1.2467281402
  O        20.3175843672        1.0366481814        1.4854035820
  O        43.2760762122       33.1825706455       13.5698064883
  O        42.0052783176       31.5841098693       14.5778945265
  O        40.5790660181       33.7749751464       13.9307643747
  O        22.3672548459        1.3845113498        0.0030891980
  O        36.6727193590       35.0997854369        1.2383696263
  O        16.4455037214        0.0643486218       14.6632321291
  O        17.9364642062        2.0433995597       13.3212238741
  O        18.9189683842        3.5931474200       14.6608230575
  O        29.7780673132       18.9029864816       12.1584827876
  O        29.8643140309       18.9147077972        4.0091083233
  O        31.0619966636       16.2631821862       12.1690927383
  O        31.1767501688       16.4810567534        4.0690583347
  O        30.3033470397       16.1258498801        9.6522325059
  O        30.3349736615       16.0618991728        6.4781064548
  O        31.7336575709       18.3326557773        7.2379328822
  O        30.8367945846       19.1275242162        9.8270360861
  O        29.2256706545       18.6924893154        6.4920520185
  O        39.4568433600       35.2438633242       11.9968433757
  O        19.1410659896        0.0045026171        3.9956930594
  O        41.9696266461       35.1727374793       12.0820494037
  O        21.6913408986       -0.0692078883        3.9010370408
  O        51.3648935449       18.6142993340       12.0002788665
  O        10.7510333070       18.7471445629        3.9100458050
  O        50.0797758013       16.4127833738       12.0866372556
  O         9.5244323100       16.4830889186        3.9962791133
 Zr         9.2964079998       16.0527909601       14.1772616274
 Zr        49.8360281736       16.0068282249        1.7516967490
 Zr        22.0732070295        0.0296430989       14.1840259310
 Zr        42.4608707840       35.1532680336        1.8060890888
 Zr        29.6156174413       19.1076272433       14.3235080610
 Zr        29.5809078295       19.1718771778        1.8730122949
 Zr        11.0373939022       19.0521636865        1.8327259353
 Zr        11.0432959259       19.1549650447       14.2460358572
 Zr        31.3371556950       16.1096709651        1.8952960473
 Zr        31.3865495285       16.0114145140       14.3063503337
 Zr        18.6009663712       -0.0016618664        1.7684459936
 Zr        18.5064128792       -0.0077388291       14.2085937834
 Zr        12.3015133520       16.3235596564       15.9850744887
 Zr        48.6155973053       18.8329303264        0.0155599022
 Zr        20.3148872286        2.4730149459       15.9855326981
 Zr        40.6433177527       32.6868798519       15.9732449534
 Zr        28.3355617532       16.3458317997        0.0859443293
 Zr        32.6421537814       18.8391509880        0.0664439143
  H        32.5905724618       18.5575444813        7.6460016696
  H        28.7915270594       19.4471766114        8.7389704991
