     574
 i =      188, E =     -4778.8036536592
  C        11.8585039891       14.0538101655       13.7365265044
  C        12.4562281828       12.8906227471       13.0179157399
  C        11.7042527281       12.1714191211       12.0767635286
  C        12.2805097936       11.1091643951       11.3842827152
  C        13.6211966853       10.7396763926       11.6118103861
  C        14.3547364771       11.4434690811       12.5848417265
  C        13.7819156361       12.5086315419       13.2761737692
  C        14.2606521164        9.6488909000       10.8386168252
  C        14.2558046101        9.6565047914        9.4166402640
  C        13.7426432719       10.7584836951        8.6629404825
  C        49.1266122378       21.2332728654       13.8744702441
  C        48.5497833011       22.4010687125       13.1472614421
  C        49.3002164015       23.0692292849       12.1671400332
  C        48.7332807794       24.1084153632       11.4340107524
  C        47.4023322708       24.5091330974       11.6618257673
  C        46.6708453427       23.8593019991       12.6743079303
  C        47.2333262187       22.8143631214       13.4036003880
  C        46.7721974762       25.5869476704       10.8645856016
  C        46.7615264174       25.5575815705        9.4428211428
  C        47.2616339476       24.4425383110        8.6993796638
  C        14.8594051971        8.5699843439        8.7034597553
  C        14.8916790282        8.5971130664       11.5152931546
  C        49.1130709908       21.2034717958        2.1505358206
  C        48.5276144505       22.3646831040        2.8778203223
  C        49.2672470685       23.0263447991        3.8697948978
  C        48.6908272079       24.0608745936        4.6012208085
  C        47.3599363856       24.4565431407        4.3638710748
  C        46.6389782950       23.8105821131        3.3414290821
  C        47.2126392305       22.7746911787        2.6097019426
  C        46.7216053233       25.5316856654        5.1547776217
  C        46.7336701623       25.5283202148        6.5764643315
  C        47.2493495132       24.4292173287        7.3328315648
  C        40.6347119434       17.1690835085        7.3301119504
  C        40.6551132075       17.1915998130        4.5212761289
  C        11.8828058428       14.0868799169        2.2905113824
  C        12.4723379412       12.9107749648        2.9950206246
  C        11.7143906814       12.1769978611        3.9202429650
  C        12.2808602893       11.0944609021        4.5887617995
  C        13.6198891462       10.7212625419        4.3574355214
  C        14.3583970165       11.4373614253        3.3974479934
  C        13.7930438436       12.5187216419        2.7249253881
  C        14.2534251305        9.6243931199        5.1277031511
  C        14.2519433416        9.6440861499        6.5498042183
  C        13.7421093115       10.7529355193        7.2966227451
  C        22.5111801815        3.2432231678       13.7482422185
  C        23.2266513417        4.3483515611       13.0476862660
  C        24.2207078094        4.0662561931       12.0992325442
  C        24.8482213116        5.1045560544       11.4158815168
  C        24.4978437387        6.4468873082       11.6629455104
  C        23.5328285686        6.7206875712       12.6494994895
  C        22.8997246555        5.6837953936       13.3296031303
  C        25.1033301731        7.5527214187       10.8879601372
  C        25.0771306202        7.5454483010        9.4647531160
  C        24.3740118172        6.5483208380        8.7195268149
  C        38.3034604049       31.9298513516       13.8434195472
  C        37.5763910499       30.8403735571       13.1332184255
  C        36.6217497752       31.1429842029       12.1503080020
  C        36.0079535710       30.1214562326       11.4311443118
  C        36.3338616489       28.7727744756       11.6742676680
  C        37.2583128749       28.4777887207       12.6939356305
  C        37.8768482454       29.4979193588       13.4112560461
  C        35.7349252339       27.6794510237       10.8778152002
  C        35.7689725210       27.6920883093        9.4564549982
  C        36.4757086701       28.6931234489        8.7187987317
  C        25.7009251405        8.6149112538        8.7456071433
  C        25.6993698562        8.6278002492       11.5592024385
  C        38.3285672572       31.9614848160        2.1611495704
  C        37.6081044066       30.8873122080        2.9016292592
  C        36.6821646245       31.1933095871        3.9107266126
  C        36.0753061309       30.1727392979        4.6399652325
  C        36.3797424806       28.8207590266        4.3833196053
  C        37.2819585947       28.5248198118        3.3431197160
  C        37.8912769343       29.5417941794        2.6154649061
  C        35.7765323861       27.7197689605        5.1679824533
  C        35.7901525872       27.7128808192        6.5902040770
  C        36.4853564808       28.7034871785        7.3519558586
  C        46.1358470358       26.6210699200        7.2865562885
  C        46.0873528551       26.5797993683        4.4786538228
  C        22.4605802558        3.2554629607        2.2624056782
  C        23.1555471779        4.3650433816        2.9852904753
  C        24.1582864942        4.0788902834        3.9252362997
  C        24.7865064837        5.1089520278        4.6212481496
  C        24.4325513643        6.4548715600        4.3983515991
  C        23.4535990638        6.7346070660        3.4259207316
  C        22.8199030157        5.7043674864        2.7319338582
  C        25.0626644935        7.5529308518        5.1722635043
  C        25.0567317814        7.5450609571        6.5967755994
  C        24.3626168141        6.5491543622        7.3511091418
  C        26.6271287743       17.8611614560       13.7777488941
  C        25.3171440886       17.9065503518       13.0536983819
  C        25.0652465142       18.8916061016       12.0860936741
  C        23.8515424130       18.9120417395       11.4007473017
  C        22.8539384468       17.9499552025       11.6599837110
  C        23.1029332699       16.9875633405       12.6567963678
  C        24.3181516183       16.9623959729       13.3401775979
  C        21.5804672383       17.9327005617       10.8958849738
  C        21.5789149618       17.9038355486        9.4725027586
  C        22.7831856366       17.7744086377        8.7118498654
  C        34.4397500245       17.1940885941       13.9153056809
  C        35.7334728615       17.1457679368       13.1732377656
  C        35.9314824464       16.1942846455       12.1609233929
  C        37.1106625302       16.1903120575       11.4212073531
  C        38.1235413612       17.1346667947       11.6777347954
  C        37.9287463056       18.0646857709       12.7165351492
  C        36.7457870109       18.0761147588       13.4510543322
  C        39.3776204160       17.1517654113       10.8924148671
  C        39.3749355476       17.1820611686        9.4708603149
  C        38.1694718011       17.3191469295        8.7133711129
  C        20.3319757305       17.9209080279        8.7645231604
  C        20.3553316551       17.9392573791       11.5780763308
  C        34.4791085322       17.2481179762        2.1837872833
  C        35.7814154872       17.1806409484        2.9090063635
  C        35.9889832523       16.2140111008        3.9038856565
  C        37.1733245330       16.2046090104        4.6350908010
  C        38.1780147097       17.1601589263        4.3885075954
  C        37.9767182335       18.1011305478        3.3615797697
  C        36.7895318177       18.1167374066        2.6347291741
  C        39.4235591848       17.1849744814        5.1848237779
  C        39.3985925309       17.1998900122        6.6060318231
  C        38.1810800658       17.3259090752        7.3464303916
  C        35.1618820726       26.6332461793        7.2952132991
  C        35.1860682560       26.6486848409        4.4859088452
  C        26.5708590615       17.8273501984        2.3269876823
  C        25.2541067735       17.8677481571        3.0346232704
  C        24.9850521061       18.8744479721        3.9738708594
  C        23.7683799954       18.8947619899        4.6504899178
  C        22.7905727473       17.9091473172        4.4086386430
  C        23.0531375946       16.9275194422        3.4361006633
  C        24.2717149895       16.9043661433        2.7598421191
  C        21.5271370935       17.8881874304        5.1819010183
  C        21.5514643739       17.8799231543        6.6040997204
  C        22.7698575055       17.7634160956        7.3448520282
  C        14.0460204160       17.8278103405        2.2946752737
  C        15.3499675118       17.8814921830        3.0218589443
  C        15.6076690038       18.8819851404        3.9719846562
  C        16.8162822447       18.8990645982        4.6657745003
  C        17.8017113172       17.9187000899        4.4310048847
  C        17.5487902126       16.9425192525        3.4486285176
  C        16.3394194984       16.9205863196        2.7570561425
  C        19.0710085992       17.8985866471        5.1991478506
  C        19.0705406300       17.8967295461        6.6223416216
  C        17.8643477560       17.7989724458        7.3838931270
  C        46.8060282469       17.2209463359        2.1655078612
  C        45.5189169525       17.1672075917        2.9143956227
  C        45.3123312325       16.1980805812        3.9082018882
  C        44.1326387428       16.1910183455        4.6474985699
  C        43.1303590696       17.1528257513        4.4138854701
  C        43.3342662151       18.1011419361        3.3933907504
  C        44.5146715739       18.1127083319        2.6557874309
  C        41.8779523769       17.1743354157        5.2017569479
  C        41.8824103918       17.1765788631        6.6235434508
  C        43.0905287244       17.2671921350        7.3834986749
  C        20.3176030712       17.9080017357        7.3298496491
  C        20.2947628585       17.8769114172        4.5160311759
  C        46.7854694662       17.2306571306       13.8854845582
  C        45.4813914723       17.1259891990       13.1738508943
  C        45.2633894099       16.1362699397       12.2035562697
  C        44.0747993836       16.1157049718       11.4784423705
  C        43.0754865836       17.0814972282       11.7072119792
  C        43.2826428936       18.0382724207       12.7183006990
  C        44.4725363276       18.0659776493       13.4378149558
  C        41.8311771193       17.1147485306       10.9090786436
  C        41.8587070772       17.1443496819        9.4884603337
  C        43.0792267280       17.2496925434        8.7501418720
  C        46.1536008104       26.6375136051        8.7210858162
  C        46.1619976422       26.6558758705       11.5307552539
  C        14.0459087976       17.8320951553       13.7040330821
  C        15.3681053332       17.9070685902       13.0146051391
  C        15.6408420645       18.9199068795       12.0830017750
  C        16.8702580895       18.9569043550       11.4286929252
  C        17.8552160489       17.9805672155       11.6808798715
  C        17.5897793229       16.9975712171       12.6517035784
  C        16.3620039989       16.9596326977       13.3086649786
  C        19.1223387790       17.9532370585       10.9118064883
  C        19.0972882123       17.9234317841        9.4897539967
  C        17.8775108670       17.8107908770        8.7505700491
  C        28.8119037310       14.0946367288        2.3957448926
  C        28.1969569954       12.9191218562        3.0844172441
  C        28.9159347880       12.1871416934        4.0404865624
  C        28.3170616211       11.1118424591        4.6923882927
  C        26.9853306057       10.7451249257        4.4107559897
  C        26.2884827238       11.4572342414        3.4178079578
  C        26.8853757589       12.5331850060        2.7655819530
  C        26.3148864011        9.6661794470        5.1706420404
  C        26.3026512500        9.6904427362        6.5936556070
  C        26.8046296718       10.8023670525        7.3389190715
  C        32.1805663902       21.2393645987        2.1473115501
  C        32.7787825486       22.4026718433        2.8691621614
  C        32.0345457374       23.0779087421        3.8484952691
  C        32.6089775339       24.1143090288        4.5782060055
  C        33.9425447543       24.5037130100        4.3476253866
  C        34.6693280911       23.8467959349        3.3369329354
  C        34.0976759840       22.8040658369        2.6103618876
  C        34.5742596701       25.5779550070        5.1466818143
  C        34.5703561083       25.5487320233        6.5686114074
  C        34.0650999128       24.4328793130        7.3074005610
  C        25.6948594320        8.6113165064        7.3115412185
  C        25.6765606370        8.6163448043        4.4969791556
  C        32.1066429042       21.2306789524       13.8773072062
  C        32.6984662517       22.3831931072       13.1358702238
  C        31.9712911220       23.0333343208       12.1272603643
  C        32.5548981794       24.0605363139       11.3897936956
  C        33.8795571244       24.4665594085       11.6427188909
  C        34.5899019401       23.8296136682       12.6784324613
  C        34.0109158904       22.7969175604       13.4111337561
  C        34.5229105252       25.5442732994       10.8570958822
  C        34.5434537959       25.5314851063        9.4348377271
  C        34.0513784956       24.4246694509        8.6743376296
  C        40.6223096289       17.1560875183        8.7638845063
  C        40.6000763221       17.1355164418       11.5731208655
  C        28.7414202740       14.0654975735       13.8148762454
  C        28.1326468244       12.9171245845       13.0754494993
  C        28.8689664966       12.2202834908       12.1054420901
  C        28.2876015176       11.1651082075       11.4059335588
  C        26.9551593659       10.7793267954       11.6548495996
  C        26.2359386429       11.4626716468       12.6533820926
  C        26.8150802154       12.5202601935       13.3518443631
  C        26.3129203472        9.6896292535       10.8824966312
  C        26.3039399325        9.7021296168        9.4589139381
  C        26.8038961658       10.8089442039        8.7064307548
  C        18.1353001611        3.1806917629        2.3222200242
  C        17.4056469451        4.2780320247        3.0206917560
  C        16.3903869716        3.9995073499        3.9486543765
  C        15.7425338062        5.0393831106        4.6122320206
  C        16.0938196303        6.3831959855        4.3719874527
  C        17.0824019789        6.6529311837        3.4074011008
  C        17.7317011484        5.6156268573        2.7424916835
  C        15.4696250523        7.4908922820        5.1349771103
  C        15.4846371280        7.4900249468        6.5569520391
  C        16.1860591343        6.4965179059        7.3099809867
  C        42.9460153274       31.8592256101        2.0780690646
  C        43.6462615288       30.7717758963        2.8218680429
  C        44.5924413140       31.0929814421        3.8074169029
  C        45.1980558129       30.0873876084        4.5550270843
  C        44.8709247593       28.7343801796        4.3407100992
  C        43.9444854558       28.4201380651        3.3280156513
  C        43.3357515188       29.4253103338        2.5799906793
  C        45.4885527068       27.6551490827        5.1439328935
  C        45.4931089645       27.6811401048        6.5656049113
  C        44.8062927762       28.6893826533        7.3122023268
  C        14.8556718076        8.5624517710        7.2693081303
  C        14.8747117979        8.5629204872        4.4564138063
  C        42.9464978797       31.9611901184       13.8037740406
  C        43.6915842618       30.8853524079       13.0903538110
  C        44.6566414433       31.1912487631       12.1184341243
  C        45.2781359568       30.1716728953       11.4007475001
  C        44.9538882594       28.8213498373       11.6379105548
  C        44.0199081777       28.5236888956       12.6482499432
  C        43.3916367870       29.5404211654       13.3604133617
  C        45.5630184032       27.7240380430       10.8526661332
  C        45.5336884018       27.7176877126        9.4313714899
  C        44.8275637910       28.7080317169        8.6783869267
  C        35.1496485282       26.6233957283        8.7297291872
  C        35.1300135810       26.6051721296       11.5394379383
  C        18.1484815991        3.2467816008       13.7015985309
  C        17.4296358285        4.3437839002       12.9924415982
  C        16.4148838416        4.0523610276       12.0684198255
  C        15.7664595263        5.0828864726       11.3929423800
  C        16.1205253639        6.4282291514       11.6161853949
  C        17.1111543425        6.7118207429       12.5742252970
  C        17.7590382132        5.6829364718       13.2538441524
  C        15.4901134492        7.5238881042       10.8437801544
  C        15.4957134560        7.5070174528        9.4223730125
  C        16.1922889736        6.5053658317        8.6758561043
  H        10.6719615825       12.4653437058       11.9002279529
  H        11.6938593092       10.5503529670       10.6582677179
  H        15.3918983525       11.1691230703       12.7662421494
  H        14.3514853757       13.0723248572       14.0111859224
  H        13.3755278425       11.6305647190        9.1962855927
  H        50.3232656999       22.7499015741       11.9830753765
  H        49.3200346819       24.6243569186       10.6770991568
  H        45.6409149876       24.1591134095       12.8565940367
  H        46.6618696308       22.2883163847       14.1648041157
  H        47.6301652788       23.5761871169        9.2411169632
  H        14.8720460645        8.5885355729       12.6036013487
  H        50.2876932690       22.7043277691        4.0639744694
  H        49.2694623188       24.5770771463        5.3640380788
  H        45.6090897264       24.1067491612        3.1533133318
  H        46.6513843920       22.2516355031        1.8390603909
  H        47.6080913303       23.5520942594        6.8019096774
  H        40.6618137294       17.1531999818        3.4336919778
  H        48.6866568962       14.0949007748       15.7947433795
  H        10.6806674236       12.4656710478        4.0969408086
  H        11.6886113848       10.5235399588        5.3006796846
  H        15.3940464592       11.1598946663        3.2120656961
  H        14.3655765773       13.0886638927        1.9969752970
  H        13.3751480625       11.6214661052        6.7579051088
  H        47.9300785176       14.2176086351        1.7160335605
  H        47.7799112538       14.3722829240       14.4893534350
  H        49.0834067565       18.5524955300        2.8724309818
  H        10.4150311177       14.1343269617        0.0038768493
  H        24.4789704448        3.0270621332       11.9079448311
  H        25.6198128208        4.8858755539       10.6808548845
  H        23.2554500284        7.7542094703       12.8462253340
  H        22.1315864528        5.8848062752       14.0723941525
  H        23.8113407081        5.7921115569        9.2591982006
  H        36.3858756540       32.1858887170       11.9523053604
  H        35.2671054986       30.3586160657       10.6708022260
  H        37.5166253795       27.4388868896       12.8882511088
  H        38.6167605907       29.2786107657       14.1772961627
  H        37.0415449966       29.4427978470        9.2641917383
  H        25.7340499288        8.6105668918       12.6469828627
  H        36.4592975732       32.2368681625        4.1212791409
  H        35.3521032781       30.4152317021        5.4154427748
  H        37.5281719578       27.4851530257        3.1377088907
  H        38.6109310244       29.3181394882        1.8317886844
  H        37.0595314899       29.4607268073        6.8259258347
  H        46.1082951956       26.5867831333        3.3906070709
  H        44.6682771836       35.1158610048       15.8086984971
  H        24.4360772574        3.0405822174        4.0920107487
  H        25.5680655421        4.8799070151        5.3425789189
  H        23.1689668763        7.7691297208        3.2449038358
  H        22.0475595394        5.9169328497        1.9963052019
  H        23.7907856891        5.7939940154        6.8195546452
  H        44.9541730368       34.3907074799        1.7003378178
  H        44.9024589978       34.2071823777       14.4849878698
  H        40.6654153569       33.2080198214        2.8578499750
  H        23.1511752788        1.9562498696        0.0105133341
  H        25.8345954365       19.6340356027       11.8856394426
  H        23.6614998577       19.6833278433       10.6573040610
  H        22.3450754569       16.2354442795       12.8666789947
  H        24.5210171564       16.2060247229       14.0948749967
  H        23.7238391467       17.6548150366        9.2415575692
  H        35.1442574801       15.4700880516       11.9640037725
  H        37.2632146725       15.4464622133       10.6423163756
  H        38.7035940373       18.8015320343       12.9177574051
  H        36.5760698869       18.8098574081       14.2356302743
  H        37.2299017562       17.4477688494        9.2434623425
  H        20.3626571428       17.9855005609       12.6656967163
  H        35.2024482199       15.4891762252        4.1007659138
  H        37.3338605129       15.4526217276        5.4044980596
  H        38.7469049257       18.8447799648        3.1675834259
  H        36.6100027968       18.8610772996        1.8625309607
  H        37.2503930470       17.4583907484        6.8022760186
  H        35.1544371541       26.6752003150        3.3983511339
  H        28.4994620199       21.0811415818       15.8785037575
  H        25.7421497817       19.6344901003        4.1538713990
  H        23.5594810502       19.6797498140        5.3741977106
  H        22.3061900225       16.1600366722        3.2435701070
  H        24.4917277073       16.1350595721        2.0234333983
  H        23.7001638066       17.6352415456        6.7994646175
  H        29.0002025711       21.7258061643        1.7510161543
  H        29.1963482806       21.7190278456       14.5656624581
  H        32.1152982203       18.5759468984        2.9641987193
  H        27.4013225344       19.0687090882        0.0834751700
  H        14.8504607003       19.6419893330        4.1514716242
  H        17.0125004381       19.6815660800        5.3956702606
  H        18.2991574679       16.1779231728        3.2580498013
  H        16.1324908322       16.1536049520        2.0144968597
  H        16.9214695050       17.6819306009        6.8575495673
  H        46.0929897180       15.4641704568        4.0940730054
  H        43.9717294892       15.4319110321        5.4097781382
  H        42.5678736569       18.8511368033        3.2092409528
  H        44.6893617666       18.8592956902        1.8847064055
  H        44.0330084153       17.3816393232        6.8556750548
  H        20.2883593566       17.9068235451        3.4279099724
  H        46.0411135976       15.3987849950       12.0186974255
  H        43.9078736329       15.3490734784       10.7249514857
  H        42.5148207785       18.7868994506       12.9019332721
  H        44.6552057465       18.8248565112       14.1945570371
  H        44.0131361082       17.3496555956        9.2955938357
  H        46.1983950199       26.6820932881       12.6182222940
  H        52.7410866860       21.0626798462        0.1998100547
  H        14.8793491900       19.6718393607       11.8879564700
  H        17.0804444702       19.7452956388       10.7091028538
  H        18.3417168297       16.2377864522       12.8547875570
  H        16.1416704520       16.1873684458       14.0416527434
  H        16.9444418270       17.7028393498        9.2954304569
  H        52.3229989671       21.6734777478       14.2890587640
  H        52.0135163972       21.7022435099        1.5009395042
  H        49.0665898635       18.6076145997       13.1993978256
  H        13.2473556962       19.0166446498       15.9724515193
  H        29.9414313466       12.4764725982        4.2597019606
  H        28.8773750338       10.5430187555        5.4312878110
  H        25.2593675617       11.1842867847        3.1933723124
  H        26.3459810376       13.1056873436        2.0149158947
  H        27.1664164204       11.6722363252        6.7991446129
  H        31.0097701669       22.7643015112        4.0324948774
  H        32.0271166937       24.6371113701        5.3341621456
  H        35.7017111752       24.1379909363        3.1543275347
  H        34.6637276858       22.2699643675        1.8506070486
  H        33.7103382838       23.5635055715        6.7613374959
  H        25.7063287275        8.5980107511        3.4089845001
  H        30.9526790340       22.7123811794       11.9232980776
  H        31.9839635948       24.5646505170       10.6131867242
  H        35.6159188941       24.1315016038       12.8783627039
  H        34.5645618926       22.2809335251       14.1921422444
  H        33.6859157665       23.5486780500        9.2028581467
  H        40.5914282673       17.0838948743       12.6601726101
  H        32.5159708792       14.1502961409        0.2538291477
  H        29.8988652702       12.5152696041       11.9168024126
  H        28.8669121707       10.6217198321       10.6625414924
  H        25.2047634374       11.1774541178       12.8515847020
  H        26.2574991592       13.0657950891       14.1095829930
  H        27.1646621430       11.6836719721        9.2396558118
  H        33.2990085212       14.1996066459       14.4385568481
  H        33.4094580658       14.3990816924        1.6108699043
  H        32.1472825999       18.5651327320       13.1956396318
  H        30.2276736307       14.1924580474        0.0764196828
  H        16.1186609792        2.9629510115        4.1353229041
  H        14.9532894028        4.8197842604        5.3280663429
  H        17.3640345605        7.6859022210        3.2135856252
  H        18.5130429513        5.8183607535        2.0139143694
  H        16.7524783709        5.7390179339        6.7765479248
  H        44.8293712473       32.1399648647        3.9812325990
  H        45.9384010579       30.3409662146        5.3105585758
  H        43.6811684464       27.3781491025        3.1583753033
  H        42.5986515085       29.1898801411        1.8158285982
  H        44.2309130232       29.4371373592        6.7739134301
  H        14.8509765619        8.5462831570        3.3681910688
  H        44.9006815634       32.2338660279       11.9273202053
  H        46.0254188472       30.4127948759       10.6478551971
  H        43.7624812040       27.4839973657       12.8393970873
  H        42.6447781896       29.3174361514       14.1184401243
  H        44.2690290974       29.4709299637        9.2129198408
  H        35.0837203537       26.6206565383       12.6266758624
  H        36.6046482026       35.1338299466        0.1858274522
  H        16.1441132046        3.0127311325       11.8984543758
  H        14.9743009881        4.8558198705       10.6827250509
  H        17.3938873966        7.7473940834       12.7517947652
  H        18.5413022213        5.8934802573       13.9792491428
  H        16.7636115591        5.7550068571        9.2142603331
  H        36.2771765327       34.4834550053       14.2679065033
  H        36.3786664989       34.2100983796        1.5055578651
  H        40.5801004867       33.2016056180       13.1489234442
  H        17.4703156582        1.9464827375       15.9690085204
  H        29.0696881371       19.4242534833        4.5305631198
  H        29.8810840618       19.7555339027       11.5962568635
  H        30.7430132911       15.5032207237       11.7310578560
  H        31.2822567721       15.5937876134        4.5205978362
  H        28.0706670810       18.2334751673        6.7551042342
  H        29.4873863247       15.2931370871        6.4538919712
  H        31.9453291283       19.5021451601        9.2777712209
  H        32.8802633173       16.4567122206        9.9897798966
  H        28.9730972526       16.7690073420        9.2508232464
  H        18.8523707296        0.8687353552        4.3402338559
  H        40.5275823913       35.2291497298       11.9471714517
  H        42.3230418141       34.4178261188       11.5863553096
  H        22.0884114466        0.6910604547        4.3572580565
  H        11.5967571530       18.7134520883        4.3876496669
  H        52.2648191813       18.4311177858       11.6721969935
  H        49.2551957901       16.4775264321       11.5796999082
  H        10.1493088912       15.7982997722        4.2984443520
  H        50.8499455225       17.6923630717       11.9493440519
  H        10.0456769002       17.3944635552        4.0571020567
  H        20.2134543338        0.0020667690        4.0473226120
  H        39.1830349309       36.1239429824       11.6811388625
 Ni        30.9477367341       17.8098371598       10.7427514467
 Ni        31.3216929799       16.2800935288        7.9953968381
 Ni        30.0108059194       18.8927342344        8.0766071864
 Ni        30.2295011059       17.5016223774        5.1712568153
  O        10.6499347651       14.3650182136       13.4806311457
  O        12.6132071910       14.6574367193       14.5787337382
  O        49.1480742779       16.8460138708       15.9846184683
  O        50.3501992053       20.9360686071       13.6430259513
  O        48.3485176954       20.5934356731       14.6608106257
  O        11.0514611060       17.0540480198       14.4954590726
  O        50.3209991035       20.8817373120        2.4119570906
  O        48.3467999503       20.5868215647        1.3322391059
  O        49.5436347599       18.2485111429        2.0734259662
  O        12.3589886370       18.6246597774        0.0048209281
  O        48.6932937611       14.1485445563       14.7461297788
  O         8.2098570458       14.2103646915        1.3277357297
  O        10.7354030341       14.5066487227        2.6695271659
  O        12.5718662856       14.5827512927        1.3336019673
  O        22.8446217554        2.0429189184       13.4819339049
  O        21.6056667772        3.5924711753       14.5845835158
  O        42.0579582104       34.1370159567       15.9739797795
  O        37.9820759828       33.1384537966       13.5676188057
  O        39.2184344820       31.5766360847       14.6619391360
  O        20.3083334999        1.0393503936       14.4967953899
  O        38.0246967719       33.1855794030        2.4202613932
  O        39.2194289130       31.5841315990        1.3311657606
  O        40.6522539917       33.7691571989        2.0655112694
  O        18.2553769611        1.3758102341        0.0019466348
  O        44.6221432998       35.1005809542       14.7535793946
  O        24.2052467225        0.0001229699        1.3260331918
  O        22.7531217865        2.0581479541        2.5891783877
  O        21.6246115555        3.5964525499        1.3479070913
  O        27.5000029041       18.7509952722       13.4888839358
  O        26.7666352820       16.9329942089       14.6489398824
  O        30.6645512251       19.4045968597        0.0308465284
  O        33.5864088525       16.2773602731       13.6593730234
  O        34.2757702136       18.1686244828       14.7296628253
  O        29.5758197287       17.0642737635       14.5706460685
  O        33.6238086372       16.3297619550        2.4136908720
  O        34.3054411307       18.2491771616        1.4096245261
  O        31.6516186343       18.3174066594        2.1514218254
  O        30.3245963694       15.1586372771        0.0852563304
  O        28.5536374250       21.0335595898       14.8275995171
  O        28.5125025211       20.9577170465        1.4084773909
  O        27.4534404237       18.6797067855        2.6617296048
  O        26.6938462328       16.9276846850        1.4168302390
  O        13.1490687931       18.6927480122        2.5928435278
  O        13.9192791878       16.9160758339        1.4100240719
  O        50.5960954054       19.3502207810        0.0255909226
  O        47.6831080356       16.3273006180        2.4224456434
  O        46.9526523043       18.1761635267        1.3290420789
  O        11.0695979846       17.0155932070        1.4948816259
  O        47.6763375089       16.3354514117       13.6479593702
  O        46.9287311879       18.2356084296       14.6602949261
  O        49.5686741389       18.3177378688       13.9770877415
  O        10.3185649857       15.1002548144        0.0021247134
  O        52.6708499701       21.0279129729        1.2469593124
  O        12.1468619109       20.8911305438       14.6680885470
  O        13.1086122178       18.6135935442       13.3203722254
  O        13.9574511802       16.9870809498       14.6602837610
  O        29.9936058866       14.4432360666        2.7362863516
  O        28.0892972747       14.6535963717        1.4991773698
  O        32.1395549767       16.8566376096        0.0794379236
  O        30.9659055448       20.9534014306        2.4118214869
  O        32.9471288062       20.6014581887        1.3417433420
  O        29.5685861092       17.0763187542        1.5813254290
  O        30.8758091033       20.9494658884       13.6550567490
  O        32.8793710034       20.5861580610       14.6591890656
  O        31.6910386865       18.2473007027       13.9903754196
  O        28.2895113466       18.6768138899        0.0768580431
  O        32.4933779929       14.2128532814        1.3330762320
  O        32.4049847765       14.2130546216       14.8191184642
  O        29.9156577591       14.4357793742       13.4811804936
  O        28.0394771182       14.5863524566       14.7469731659
  O        17.8891447501        1.9666060478        2.6679681707
  O        18.9562475286        3.5270879885        1.4130890984
  O        39.1687758041       34.1387226662        0.0023027275
  O        43.2801628292       33.0590038988        2.3367146816
  O        42.0345623038       31.5064782186        1.2467248081
  O        20.3175074020        1.0364424456        1.4856274258
  O        43.2760866664       33.1825190000       13.5697906832
  O        42.0052747956       31.5841016516       14.5779345884
  O        40.5790050555       33.7747944598       13.9307030181
  O        22.3670478012        1.3844674098        0.0032430109
  O        36.6727402301       35.0998015197        1.2384061942
  O        16.4455119439        0.0643510119       14.6632148115
  O        17.9364802142        2.0434007107       13.3212792781
  O        18.9190987181        3.5931185605       14.6608528164
  O        29.9502771395       18.9070175923       12.0709919802
  O        29.7495615942       18.9730896888        3.9960928587
  O        31.2209062454       16.2761839963       12.0803529306
  O        31.3869337705       16.4129635405        3.9940845663
  O        32.4053529457       17.1535931689        9.5046472806
  O        29.8647347653       17.1441793181        9.1587335155
  O        30.2884934208       15.8264279866        6.3325397801
  O        31.4307383544       18.1018532843        6.8303077546
  O        31.0138050210       19.5518964643        9.5660240602
  O        28.9705549648       18.5399494009        6.5594559758
  O        39.4565978828       35.2435593918       11.9969067579
  O        19.1405732769        0.0043004126        3.9957310849
  O        41.9697652070       35.1727880384       12.0821979352
  O        21.6911698936       -0.0693809331        3.9008347534
  O        51.3650675816       18.6143064733       12.0003735702
  O        10.7510277785       18.7472395421        3.9099865977
  O        50.0798305470       16.4127757912       12.0866286103
  O         9.5238527212       16.4832015845        3.9963341606
 Zr         9.2956392861       16.0531640155       14.1773872380
 Zr        49.8349874696       16.0070095329        1.7514247372
 Zr        22.0728866321        0.0277785095       14.1844333265
 Zr        42.4606764444       35.1516207902        1.8058920684
 Zr        29.6149454837       19.0762058236       14.2432819642
 Zr        29.5774334083       19.1877942815        1.8431076794
 Zr        11.0373552014       19.0522903406        1.8326890014
 Zr        11.0432249115       19.1552094773       14.2461135723
 Zr        31.3634932749       16.1045929456        1.8699579048
 Zr        31.3957514323       16.0098537273       14.2557419143
 Zr        18.6003830652       -0.0030071449        1.7684514315
 Zr        18.5058074440       -0.0089724171       14.2086005284
 Zr        12.3009532186       16.3243310031       15.9850596980
 Zr        48.6155318888       18.8332999936        0.0153211042
 Zr        20.3139720509        2.4712634521       15.9856206393
 Zr        40.6429994695       32.6852966157       15.9732608480
 Zr        28.3512718857       16.3476479341        0.0906272104
 Zr        32.6300084902       18.8338735170        0.0546663364
  H        32.3013212317       18.5159969145        6.7170466363
  H        31.5173345927       14.8817209923        8.6182069489
  H        28.8765147057       19.4884129177        8.7342890498
