     574
 i =      139, E =     -4778.8482332741
  C        11.8587987684       14.0535183433       13.7363984882
  C        12.4562932296       12.8906239709       13.0180933257
  C        11.7045131992       12.1715109159       12.0766377718
  C        12.2808986017       11.1093057343       11.3843080599
  C        13.6215452295       10.7396796283       11.6118999208
  C        14.3548252461       11.4434693158       12.5851182988
  C        13.7819342242       12.5084588500       13.2765992261
  C        14.2610565059        9.6489991608       10.8385132327
  C        14.2563277285        9.6568957234        9.4168188573
  C        13.7431321542       10.7590129918        8.6629262241
  C        49.1269519915       21.2331920869       13.8745078999
  C        48.5502353159       22.4012022503       13.1474632897
  C        49.3002185945       23.0684547808       12.1663942004
  C        48.7332831090       24.1076229265       11.4332250553
  C        47.4027910603       24.5093526428       11.6619627288
  C        46.6719140949       23.8605830421       12.6755972961
  C        47.2343665531       22.8156570563       13.4049092235
  C        46.7724792639       25.5870140307       10.8647030372
  C        46.7613533365       25.5573383916        9.4429450836
  C        47.2612797493       24.4422418397        8.6994479061
  C        14.8602685854        8.5705601592        8.7035588883
  C        14.8918682888        8.5970829192       11.5151725788
  C        49.1133090124       21.2034771238        2.1504680225
  C        48.5279477250       22.3648572481        2.8776638484
  C        49.2671143465       23.0254471901        3.8706990570
  C        48.6907838907       24.0600152354        4.6021520822
  C        47.3604325823       24.4569105834        4.3637923817
  C        46.6401090028       23.8121577669        3.3401076212
  C        47.2136578104       22.7762431053        2.6083400746
  C        46.7219389412       25.5318564398        5.1548064888
  C        46.7335614168       25.5281511452        6.5765102767
  C        47.2489818321       24.4289302383        7.3328959668
  C        40.6353745984       17.1536836937        7.3259858995
  C        40.6558479381       17.1785263117        4.5169916127
  C        11.8830728968       14.0864882945        2.2905925392
  C        12.4724100650       12.9107583797        2.9948555185
  C        11.7148593335       12.1774648662        3.9208687007
  C        12.2814730214       11.0950365553        4.5892953349
  C        13.6203513005       10.7214395367        4.3575794331
  C        14.3583749376       11.4371142144        3.3968978016
  C        13.7929243282       12.5182597684        2.7241911740
  C        14.2539310975        9.6246672600        5.1279734719
  C        14.2525555254        9.6445822714        6.5498095377
  C        13.7426380279       10.7535112058        7.2968820834
  C        22.5130942344        3.2443373430       13.7483901742
  C        23.2308907802        4.3482317650       13.0499363725
  C        24.2282180409        4.0652142841       12.1048961111
  C        24.8590255366        5.1026849211       11.4232509530
  C        24.5084497800        6.4455414093       11.6664942445
  C        23.5394363016        6.7201107917       12.6487304081
  C        22.9038525550        5.6843824060       13.3287766693
  C        25.1173129877        7.5500734704       10.8902209786
  C        25.0862606645        7.5435517121        9.4687997952
  C        24.3798606280        6.5463051140        8.7239130510
  C        38.3031240851       31.9295173653       13.8438908875
  C        37.5747473913       30.8390697747       13.1342420500
  C        36.6177696301       31.1412295976       12.1535192374
  C        36.0026616308       30.1195684309       11.4352738838
  C        36.3295100723       28.7708544654       11.6768396268
  C        37.2565869600       28.4761948950       12.6941370662
  C        37.8761812840       29.4965662345       13.4107579614
  C        35.7292097954       27.6779254435       10.8796764635
  C        35.7636915062       27.6915550741        9.4584172798
  C        36.4721853072       28.6924111211        8.7214742741
  C        25.7097951299        8.6125010790        8.7479297927
  C        25.7193977345        8.6227063756       11.5599808433
  C        38.3293095618       31.9621392599        2.1613976493
  C        37.6093167538       30.8878641807        2.9034490640
  C        36.6828974028       31.1946889929        3.9116887076
  C        36.0753667481       30.1746836479        4.6413230454
  C        36.3799278614       28.8226829044        4.3857328748
  C        37.2836623747       28.5258574566        3.3472526784
  C        37.8934839362       29.5423243068        2.6191484985
  C        35.7742495445       27.7222276295        5.1696552520
  C        35.7867879352       27.7142882817        6.5915983851
  C        36.4827597433       28.7036551906        7.3549385279
  C        46.1355184074       26.6207677737        7.2866498466
  C        46.0880454824       26.5802548896        4.4787549289
  C        22.4606932902        3.2557580348        2.2630161810
  C        23.1543393916        4.3639522254        2.9866858741
  C        24.1559653352        4.0770062987        3.9277536699
  C        24.7838916214        5.1064996846        4.6245772482
  C        24.4305159964        6.4526355924        4.4028078258
  C        23.4518871074        6.7328142146        3.4303267708
  C        22.8192144148        5.7035537646        2.7340305125
  C        25.0625784962        7.5499896376        5.1768459513
  C        25.0586376176        7.5429051293        6.5997048452
  C        24.3650445841        6.5468685090        7.3572832923
  C        26.6231309934       17.8606600160       13.7760764360
  C        25.3146438636       17.9071823817       13.0521887304
  C        25.0594340821       18.8971748015       12.0902950031
  C        23.8459050074       18.9173651834       11.4049438426
  C        22.8514645993       17.9505702621       11.6587355313
  C        23.1036641257       16.9831714625       12.6497585991
  C        24.3188458558       16.9577747453       13.3328895535
  C        21.5781389786       17.9341577113       10.8944466095
  C        21.5772479463       17.9071680309        9.4719205426
  C        22.7822986418       17.7802199861        8.7110367153
  C        34.4407881245       17.1951310311       13.9158333005
  C        35.7320598282       17.1515675818       13.1678653697
  C        35.9373643687       16.1893604702       12.1669186406
  C        37.1172190597       16.1832416807       11.4282585251
  C        38.1240847263       17.1371427811       11.6727764172
  C        37.9213150811       18.0802165174       12.6980095293
  C        36.7380641579       18.0925994593       13.4326995939
  C        39.3789846512       17.1496068426       10.8883148679
  C        39.3761128309       17.1689046226        9.4670197857
  C        38.1697662718       17.2917575860        8.7079970634
  C        20.3305183197       17.9236847960        8.7635366140
  C        20.3531218091       17.9394183844       11.5766272699
  C        34.4748460491       17.2468443736        2.1856809206
  C        35.7787654773       17.1747562304        2.9086192657
  C        35.9974987799       16.1891937041        3.8825373946
  C        37.1833096028       16.1749839375        4.6115752896
  C        38.1783796939       17.1452744975        4.3844867632
  C        37.9665621715       18.1056655888        3.3781731107
  C        36.7783601429       18.1251364885        2.6527284229
  C        39.4246487011       17.1666953094        5.1805536414
  C        39.3995000848       17.1775951998        6.6011957868
  C        38.1807337435       17.2934547930        7.3414419848
  C        35.1554206363       26.6356286002        7.2954421595
  C        35.1826906846       26.6524520523        4.4862637684
  C        26.5694324354       17.8245051002        2.3292480611
  C        25.2535437441       17.8698989350        3.0350030775
  C        24.9858786643       18.8773492577        3.9741702837
  C        23.7689745132       18.8997602562        4.6500383940
  C        22.7895943145       17.9156833343        4.4082693084
  C        23.0506814732       16.9340274977        3.4353697260
  C        24.2690438088       16.9087259509        2.7592378209
  C        21.5263202600       17.8958056497        5.1818108629
  C        21.5507439707       17.8863381541        6.6031973119
  C        22.7693950488       17.7704166914        7.3447961163
  C        14.0463391719       17.8282868764        2.2943800046
  C        15.3500607981       17.8836119768        3.0205095469
  C        15.6066701506       18.8847098204        3.9703533582
  C        16.8152674341       18.9033171058        4.6638983813
  C        17.8014292321       17.9237066695        4.4296665834
  C        17.5495817694       16.9469882985        3.4476790747
  C        16.3404494281       16.9236832776        2.7558058577
  C        19.0704391292       17.9048204862        5.1984288708
  C        19.0695597392       17.9012373033        6.6208730714
  C        17.8628472754       17.8024942498        7.3826113940
  C        46.8071448559       17.2203428011        2.1645965851
  C        45.5194178709       17.1647791392        2.9130345423
  C        45.3132283492       16.1927922141        3.9038828945
  C        44.1331698476       16.1829123707        4.6424259249
  C        43.1310956719       17.1450351699        4.4105603280
  C        43.3347500348       18.0968413974        3.3935710280
  C        44.5154893524       18.1108597142        2.6564939677
  C        41.8784735438       17.1629782057        5.1979516035
  C        41.8829683004       17.1651259518        6.6194146518
  C        43.0912240480       17.2590416136        7.3793850642
  C        20.3165607976       17.9122005603        7.3287176227
  C        20.2942505359       17.8851071154        4.5155537158
  C        46.7861054952       17.2314599551       13.8848999476
  C        45.4821787510       17.1284396747       13.1710176056
  C        45.2619391687       16.1350626046       12.2051655167
  C        44.0736552027       16.1146254340       11.4792956098
  C        43.0771956554       17.0843522821       11.7031252777
  C        43.2870048667       18.0461279657       12.7086835730
  C        44.4764986540       18.0732781456       13.4291480852
  C        41.8324018631       17.1153197058       10.9051495250
  C        41.8596029536       17.1391539780        9.4846549930
  C        43.0801421564       17.2441076806        8.7457970572
  C        46.1533018125       26.6372004065        8.7211996756
  C        46.1625753058       26.6561606908       11.5308339207
  C        14.0458622514       17.8318724164       13.7037608261
  C        15.3671054796       17.9064394644       13.0139272426
  C        15.6400818927       18.9203504145       12.0835320888
  C        16.8692838480       18.9573425591       11.4290404557
  C        17.8533033402       17.9796812295       11.6791896515
  C        17.5873659402       16.9951815219       12.6482110197
  C        16.3601184819       16.9575064988       13.3060536109
  C        19.1204464537       17.9535557891       10.9099881931
  C        19.0956261447       17.9249721332        9.4886296150
  C        17.8756384990       17.8131102792        8.7485807048
  C        28.8102232649       14.0911279724        2.3968346448
  C        28.1971938443       12.9160346008        3.0835322452
  C        28.9243424349       12.1660224927        4.0197365250
  C        28.3249165927       11.0913345780        4.6719973488
  C        26.9845627931       10.7417920125        4.4107044459
  C        26.2792800427       11.4711351011        3.4368690772
  C        26.8763052913       12.5466003423        2.7838166339
  C        26.3166152004        9.6614270048        5.1723365476
  C        26.3093125966        9.6859335324        6.5933439662
  C        26.8182558034       10.7967222561        7.3384939413
  C        32.1778681414       21.2387525969        2.1475373924
  C        32.7758020308       22.4039250371        2.8675281661
  C        32.0279355989       23.0859168175        3.8396415501
  C        32.6010281579       24.1236568545        4.5687439243
  C        33.9374537766       24.5078777294        4.3455699794
  C        34.6677993156       23.8448484702        3.3415089805
  C        34.0971088616       22.8013009361        2.6148965581
  C        34.5682151178       25.5825022809        5.1457128298
  C        34.5614146568       25.5534397474        6.5672089138
  C        34.0496529431       24.4397266759        7.3053109743
  C        25.6998042563        8.6087431751        7.3132582786
  C        25.6768356640        8.6122844618        4.4997544247
  C        32.1011589747       21.2238183200       13.8756153182
  C        32.6936524750       22.3734558984       13.1286517293
  C        31.9615902594       23.0327801297       12.1293235714
  C        32.5437345352       24.0627222773       11.3937887982
  C        33.8718237409       24.4631673366       11.6392120134
  C        34.5869760535       23.8166350770       12.6654810504
  C        34.0094771569       22.7815670015       13.3963778166
  C        34.5138909839       25.5442160121       10.8560768885
  C        34.5328046656       25.5341902740        9.4342675020
  C        34.0351579491       24.4308329754        8.6718300004
  C        40.6232000249       17.1448086593        8.7598795484
  C        40.6013026863       17.1391799618       11.5693188614
  C        28.7515664569       14.0690313016       13.8122913519
  C        28.1444372098       12.9198205456       13.0741018456
  C        28.8813777914       12.2273897178       12.1012801789
  C        28.3037947559       11.1683753977       11.4043257247
  C        26.9730104272       10.7764139988       11.6540654365
  C        26.2532271867       11.4574700351       12.6535133752
  C        26.8294816574       12.5162315045       13.3528334290
  C        26.3317553511        9.6848320878       10.8819320844
  C        26.3181365862        9.6981110130        9.4600620659
  C        26.8201409923       10.8039628204        8.7043044335
  C        18.1354787814        3.1810783100        2.3222778784
  C        17.4062088688        4.2782971874        3.0209043721
  C        16.3903984590        3.9999480876        3.9483293999
  C        15.7426891644        5.0399365868        4.6118204683
  C        16.0946840254        6.3836504041        4.3722043038
  C        17.0841519102        6.6531632593        3.4085255598
  C        17.7332346149        5.6158154266        2.7434754895
  C        15.4703599487        7.4913385516        5.1352608097
  C        15.4855474190        7.4905854296        6.5569741921
  C        16.1870848462        6.4969611217        7.3101500792
  C        42.9459385804       31.8595838334        2.0779999199
  C        43.6463424281       30.7719093256        2.8219761811
  C        44.5918199660       31.0932520199        3.8080829250
  C        45.1975456455       30.0877130405        4.5557536386
  C        44.8711972592       28.7346414551        4.3408385263
  C        43.9454665479       28.4202851716        3.3275425642
  C        43.3366290043       29.4254176730        2.5795076822
  C        45.4887539770       27.6553305403        5.1440318474
  C        45.4928470683       27.6809153049        6.5657262081
  C        44.8057615130       28.6889621736        7.3123543005
  C        14.8565558287        8.5630604702        7.2693404658
  C        14.8751585732        8.5631527715        4.4566735497
  C        42.9464769724       31.9616600295       13.8038545759
  C        43.6917599500       30.8855123616       13.0903948531
  C        44.6563552616       31.1914210615       12.1181036513
  C        45.2779031785       30.1718336407       11.4003887365
  C        44.9541580556       28.8215164735       11.6380486311
  C        44.0207077545       28.5238491380       12.6488565677
  C        43.3924225974       29.5406146227       13.3610145683
  C        45.5631674116       27.7241030938       10.8527933646
  C        45.5333666165       27.7173725129        9.4314977526
  C        44.8270364883       28.7075962511        8.6785399741
  C        35.1423901712       26.6248259274        8.7301857114
  C        35.1229556320       26.6032401148       11.5399482560
  C        18.1485987203        3.2470594820       13.7014871505
  C        17.4300041136        4.3438674403       12.9922405236
  C        16.4146900266        4.0525958762       12.0687784055
  C        15.7663893297        5.0832296090       11.3933962144
  C        16.1211805876        6.4284508758       11.6160165461
  C        17.1126857151        6.7118393565       12.5731382572
  C        17.7603586118        5.6829250503       13.2528999982
  C        15.4906516476        7.5241310031       10.8435793836
  C        15.4965124920        7.5074771703        9.4224480623
  C        16.1932721848        6.5057681302        8.6757555567
  H        10.6723123629       12.4654785564       11.8997835114
  H        11.6945689670       10.5506556001       10.6579330549
  H        15.3919491268       11.1690860160       12.7666453909
  H        14.3515181613       13.0718869040       14.0117834490
  H        13.3761250202       11.6311298578        9.1962521446
  H        50.3229038730       22.7483697544       11.9815885628
  H        49.3197527846       24.6228614105       10.6756147719
  H        45.6424925134       24.1615044571       12.8589181546
  H        46.6634464921       22.2905007539       14.1671276486
  H        47.6298932777       23.5758994131        9.2411378194
  H        14.8723055124        8.5883918243       12.6034811210
  H        50.2871317987       22.7025316912        4.0656691830
  H        49.2691614428       24.5754148986        5.3657061878
  H        45.6107949532       24.1096004379        3.1508742828
  H        46.6529391380       22.2542214093        1.8366083167
  H        47.6078240478       23.5518385924        6.8019955232
  H        40.6630799126       17.1438725547        3.4292738078
  H        48.6870990908       14.0949806789       15.7949426252
  H        10.6813372157       12.4664178148        4.0981557035
  H        11.6896674480       10.5245266923        5.3018866050
  H        15.3938802722       11.1593993139        3.2111157105
  H        14.3653488457       13.0877634880        1.9958326390
  H        13.3758473413       11.6221399431        6.7582454484
  H        47.9303066916       14.2181421809        1.7161043125
  H        47.7800718003       14.3735551173       14.4901248424
  H        49.0846816204       18.5528389621        2.8727660402
  H        10.4162662242       14.1342540275        0.0037889759
  H        24.4865556326        3.0258576336       11.9147778570
  H        25.6322626080        4.8828358282       10.6903081357
  H        23.2614717122        7.7539511661       12.8429764697
  H        22.1334728418        5.8872611085       14.0687321611
  H        23.8185360699        5.7903651572        9.2652876947
  H        36.3811059281       32.1841143988       11.9562026438
  H        35.2603049810       30.3570840571       10.6764820387
  H        37.5162799273       27.4374552795       12.8875672935
  H        38.6179576125       29.2773199523       14.1750558491
  H        37.0383241415       29.4411361267        9.2678880913
  H        25.7566299912        8.6051766527       12.6477160706
  H        36.4600041786       32.2384997657        4.1210189208
  H        35.3515635505       30.4178981367        5.4160338411
  H        37.5304003619       27.4860577437        3.1431320729
  H        38.6140312682       29.3184291331        1.8363360662
  H        37.0580060089       29.4606188882        6.8296187077
  H        46.1095963388       26.5877365413        3.3907218472
  H        44.6683225259       35.1162140015       15.8088678021
  H        24.4332390307        3.0385917039        4.0944744826
  H        25.5644315347        4.8770157412        5.3468325714
  H        23.1675632885        7.7675424270        3.2500528101
  H        22.0479302743        5.9171164529        1.9976164191
  H        23.7917266805        5.7919772899        6.8270274416
  H        44.9539780730       34.3905199106        1.7003525718
  H        44.9018837831       34.2068218848       14.4855902455
  H        40.6661245421       33.2092771138        2.8583087861
  H        23.1504843854        1.9579461124        0.0105446650
  H        25.8256904022       19.6440869061       11.8949937282
  H        23.6527870107       19.6918651495       10.6656508424
  H        22.3482992035       16.2272535033       12.8548799560
  H        24.5244615595       16.1968167557       14.0821695305
  H        23.7225833905       17.6611039905        9.2414369459
  H        35.1568440076       15.4563648018       11.9775258495
  H        37.2764095012       15.4287585631       10.6609061188
  H        38.6912864164       18.8246017241       12.8902816322
  H        36.5637931054       18.8344047295       14.2087418397
  H        37.2306171381       17.4122458073        9.2402311306
  H        20.3601372113       17.9838644972       12.6643204142
  H        35.2191984786       15.4513114220        4.0628819302
  H        37.3534657859       15.4078767135        5.3639491030
  H        38.7298393537       18.8600983991        3.1989051341
  H        36.5913402741       18.8833375322        1.8959111690
  H        37.2501271424       17.4140136719        6.7944367608
  H        35.1532765899       26.6795470547        3.3986424082
  H        28.5020884718       21.0683190587       15.9585142902
  H        25.7436404457       19.6365845436        4.1545353423
  H        23.5608879036       19.6849251563        5.3737624293
  H        22.3022682060       16.1680721609        3.2425393640
  H        24.4873838450       16.1390772196        2.0227142530
  H        23.6997597470       17.6436449379        6.7993033369
  H        29.0199908431       21.7113358308        1.7537525612
  H        29.1825091172       21.7247640326       14.6271332201
  H        32.1035754452       18.5715364140        2.9793600978
  H        27.3729330201       19.0192469065        0.0772461919
  H        14.8486086717       19.6438586850        4.1497116705
  H        17.0106981204       19.6858749411        5.3939208046
  H        18.3006595150       16.1829645503        3.2576708690
  H        16.1344503157       16.1563083942        2.0134150217
  H        16.9201998467       17.6859435284        6.8558167962
  H        46.0944966126       15.4590634650        4.0878866590
  H        43.9721324743       15.4217182295        5.4026131100
  H        42.5682729505       18.8472900468        3.2116270333
  H        44.6908735136       18.8596485204        1.8876939294
  H        44.0333673247       17.3740021340        6.8510494574
  H        20.2878678637       17.9157797169        3.4274501067
  H        46.0376811879       15.3944608581       12.0243821280
  H        43.9049870948       15.3448222330       10.7294055565
  H        42.5217742908       18.7984868657       12.8878777231
  H        44.6614503914       18.8353267432       14.1821627761
  H        44.0138520983       17.3462818052        9.2912275949
  H        46.1995638379       26.6827858676       12.6182729445
  H        52.7413094880       21.0626895399        0.1998069595
  H        14.8790688715       19.6730828080       11.8898291093
  H        17.0799622991       19.7463559240       10.7103025312
  H        18.3386170525       16.2342121259       12.8493442438
  H        16.1394785102       16.1842567032       14.0378842988
  H        16.9425428766       17.7046195051        9.2932328093
  H        52.3228443803       21.6734278642       14.2890482366
  H        52.0135062038       21.7022676990        1.5007892007
  H        49.0679807111       18.6078448347       13.1988511547
  H        13.2479203251       19.0160996545       15.9723333446
  H        29.9582733101       12.4384201290        4.2198849067
  H        28.8901490207       10.5085650749        5.3961845337
  H        25.2438311218       11.2105201698        3.2273937651
  H        26.3298381088       13.1310114420        2.0476042670
  H        27.1816594112       11.6643996807        6.7963085885
  H        31.0004518906       22.7773830841        4.0172828105
  H        32.0159183481       24.6523825782        5.3181253374
  H        35.7019039596       24.1328212678        3.1634034156
  H        34.6658852602       22.2637771595        1.8595648935
  H        33.6899608464       23.5738060770        6.7570574035
  H        25.7033017157        8.5942087190        3.4116370108
  H        30.9386082029       22.7192531247       11.9349718726
  H        31.9685064114       24.5756033230       10.6259944782
  H        35.6150604981       24.1146658820       12.8607771039
  H        34.5662554162       22.2606030484       14.1718536744
  H        33.6640807292       23.5577979103        9.2010255170
  H        40.5929455912       17.0947541296       12.6567031006
  H        32.5054148868       14.1514418184        0.2593099058
  H        29.9077288006       12.5333696747       11.9108864836
  H        28.8834786466       10.6262680873       10.6602586733
  H        25.2234088270       11.1682020180       12.8529293932
  H        26.2705852451       13.0576227452       14.1124815292
  H        27.1839802860       11.6772738718        9.2376560779
  H        33.3100374160       14.2254513940       14.4639788150
  H        33.4089599953       14.4138064669        1.6013434557
  H        32.1184571750       18.5093770244       13.1814927244
  H        30.2234770561       14.1923650902        0.0784044477
  H        16.1182519066        2.9634533958        4.1346504535
  H        14.9531611337        4.8205766451        5.3273993325
  H        17.3666728885        7.6860273966        3.2154819518
  H        18.5153350038        5.8184827341        2.0156996574
  H        16.7536877671        5.7396551173        6.7766521104
  H        44.8280656462       32.1403418668        3.9822829662
  H        45.9374058767       30.3414895974        5.3116978998
  H        43.6829131327       27.3781975364        3.1573242542
  H        42.6001109348       29.1900939167        1.8147457644
  H        44.2305039033       29.4367969185        6.7740394393
  H        14.8515128387        8.5464560188        3.3684500629
  H        44.8999078751       32.2341020070       11.9266572974
  H        46.0248364780       30.4130712323       10.6471796971
  H        43.7638569830       27.4841086443       12.8405038056
  H        42.6459857918       29.3178456033       14.1195275161
  H        44.2686212768       29.4705478934        9.2131293373
  H        35.0779356813       26.6169599014       12.6273031454
  H        36.6051625959       35.1340854807        0.1857208199
  H        16.1435108562        3.0130300686       11.8991481233
  H        14.9739770532        4.8564176021       10.6833983579
  H        17.3963456723        7.7472896141       12.7498896339
  H        18.5433870904        5.8933934555       13.9774941627
  H        16.7647300994        5.7555501433        9.2141998542
  H        36.2785306700       34.4826494733       14.2679626466
  H        36.3808332240       34.2092481354        1.5047868114
  H        40.5804814892       33.2028344629       13.1482704743
  H        17.4709092833        1.9478523012       15.9690226049
  H        29.0505605915       19.3255717215        4.4931942782
  H        29.7806529431       19.6808105861       11.5875445526
  H        32.0101638915       15.8485831093       11.5844563461
  H        31.2616048297       15.5606023253        4.5383199110
  H        28.0580239368       18.1401030610        6.7315848382
  H        29.5668956594       15.1582592372        6.5898599300
  H        31.8547767309       19.7810915681        9.2308244804
  H        33.0374389945       17.2368127028        9.2246594639
  H        28.8733137927       16.8164591976        9.2846561236
  H        18.8530899528        0.8688146006        4.3403721763
  H        40.5282259406       35.2291763687       11.9468969551
  H        42.3244825808       34.4193531475       11.5850665404
  H        22.0875352485        0.6922848557        4.3566666873
  H        11.5968813985       18.7131979620        4.3877538639
  H        52.2648637243       18.4312506380       11.6719415105
  H        49.2552608384       16.4768276457       11.5792971358
  H        10.1509862427       15.7981620408        4.2975190914
  H        50.8501272263       17.6924014868       11.9491184167
  H        10.0465626732       17.3945456088        4.0570277301
  H        20.2143829772        0.0021692920        4.0471179958
  H        39.1839668593       36.1247676325       11.6814211722
 Ni        30.9426472792       17.7688288945       10.7430732633
 Ni        31.1600416980       16.2755617900        8.0773742876
 Ni        29.9661854875       18.9219396409        7.9975383443
 Ni        30.2684420950       17.5191603827        5.3291116706
  O        10.6499359001       14.3650923359       13.4807422949
  O        12.6131692872       14.6574982200       14.5787769856
  O        49.1481563948       16.8458479341       15.9846034969
  O        50.3503326032       20.9358034766       13.6428928357
  O        48.3486118111       20.5933698211       14.6607802539
  O        11.0518238771       17.0538106333       14.4956049499
  O        50.3210561638       20.8816695540        2.4119759329
  O        48.3467790741       20.5868243258        1.3322577430
  O        49.5438926394       18.2484281996        2.0733648646
  O        12.3592848328       18.6246892528        0.0047962437
  O        48.6932740637       14.1485700218       14.7462037672
  O         8.2099303026       14.2103695895        1.3276284863
  O        10.7354101302       14.5067245918        2.6694040278
  O        12.5718325159       14.5828086853        1.3335874234
  O        22.8445648807        2.0428330149       13.4821776322
  O        21.6059453419        3.5925003869       14.5841301061
  O        42.0582926416       34.1374977055       15.9738711099
  O        37.9818060600       33.1375725176       13.5672700477
  O        39.2183231359       31.5762233346       14.6617676412
  O        20.3084396649        1.0396577651       14.4970416487
  O        38.0246328686       33.1856119848        2.4203612912
  O        39.2193785561       31.5839235483        1.3312986370
  O        40.6522805923       33.7694323630        2.0653323271
  O        18.2556132789        1.3767090989        0.0018546659
  O        44.6222381089       35.1005390551       14.7536756082
  O        24.2054105211        0.0000209238        1.3258896543
  O        22.7529458653        2.0575913163        2.5888749975
  O        21.6245077128        3.5960959084        1.3478631191
  O        27.4973329191       18.7520335490       13.4906105726
  O        26.7639971781       16.9306886942       14.6448321119
  O        30.6382007616       19.3519768673        0.0645533134
  O        33.5908487540       16.2735092063       13.6634563126
  O        34.2749178551       18.1680218034       14.7305921418
  O        29.5764248064       17.0587545381       14.5661815495
  O        33.6170353661       16.3294288135        2.4189050180
  O        34.3047159430       18.2469414659        1.4106769165
  O        31.6532297253       18.3127498866        2.1594361264
  O        30.3229573266       15.1583056033        0.0917191974
  O        28.5554517941       21.0274277200       14.8919923400
  O        28.5123438935       20.9537249927        1.4163259373
  O        27.4548731349       18.6776913093        2.6646959239
  O        26.6928871097       16.9259010657        1.4198388840
  O        13.1486944603       18.6928677157        2.5925873963
  O        13.9191999458       16.9161830925        1.4100102083
  O        50.5965665632       19.3503206872        0.0255035357
  O        47.6836809984       16.3269947665        2.4224035983
  O        46.9526095794       18.1761115378        1.3290412478
  O        11.0699500379       17.0154832487        1.4947129527
  O        47.6758982930       16.3356052175       13.6478420369
  O        46.9283021532       18.2358988346       14.6601364876
  O        49.5689108107       18.3177153793       13.9771565350
  O        10.3187309804       15.1000890739        0.0021876509
  O        52.6707820056       21.0278717534        1.2469199596
  O        12.1468686409       20.8912154643       14.6681476111
  O        13.1082445741       18.6136106199       13.3204943521
  O        13.9572245989       16.9870757136       14.6603288786
  O        29.9938163929       14.4418619076        2.7380221364
  O        28.0894919910       14.6526033692        1.5013070795
  O        32.1374937615       16.8507546965        0.0864435528
  O        30.9643109818       20.9514354676        2.4131652657
  O        32.9449438253       20.6007068807        1.3414253253
  O        29.5683175999       17.0701979215        1.5816814311
  O        30.8697021798       20.9433590741       13.6564473714
  O        32.8753111970       20.5863503803       14.6620923193
  O        31.6857491595       18.2548661045       14.0111506909
  O        28.2619270135       18.6295499193        0.0789274265
  O        32.4920176551       14.2143582429        1.3359926950
  O        32.4052416050       14.2155631181       14.8186886908
  O        29.9227676863       14.4422042357       13.4836938432
  O        28.0409710060       14.5874760735       14.7457031012
  O        17.8892624058        1.9666746980        2.6679173369
  O        18.9562728694        3.5271885494        1.4130832107
  O        39.1685814205       34.1388754226        0.0022857071
  O        43.2802434956       33.0589800922        2.3368316955
  O        42.0345735088       31.5064394600        1.2467463802
  O        20.3177124673        1.0368537105        1.4851601571
  O        43.2761090437       33.1825973141       13.5697806053
  O        42.0052957078       31.5840969307       14.5778578946
  O        40.5790091135       33.7750708357       13.9307038886
  O        22.3673648255        1.3847095457        0.0030274186
  O        36.6728110380       35.0998121107        1.2383697610
  O        16.4456438352        0.0643121993       14.6631867145
  O        17.9365067379        2.0434065203       13.3212785481
  O        18.9191045268        3.5931638552       14.6607891760
  O        29.9057468216       18.8451483430       12.0725400210
  O        29.7866402399       18.9082364420        4.0061713197
  O        31.3859304840       16.4051951046       12.0852085695
  O        31.3119191406       16.4108316712        4.0617075265
  O        32.2995374950       16.7008510758        9.5612294613
  O        29.7465377000       17.2289056514        9.1637127230
  O        30.3287361391       15.7530728514        6.4971465791
  O        31.4619675020       18.0136226533        6.9880208002
  O        30.9697386753       19.4889019795        9.5052798073
  O        28.9105747998       18.5425683184        6.4993972194
  O        39.4569973024       35.2440454897       11.9968210563
  O        19.1410561575        0.0043476013        3.9956611301
  O        41.9696417807       35.1727750279       12.0820395860
  O        21.6912550223       -0.0692275091        3.9010473925
  O        51.3650790726       18.6142888917       12.0002546914
  O        10.7511553030       18.7472171810        3.9100487195
  O        50.0796451322       16.4127885849       12.0866269410
  O         9.5249429967       16.4830046579        3.9963078085
 Zr         9.2974768610       16.0526730576       14.1774213915
 Zr        49.8369410913       16.0065626018        1.7514144914
 Zr        22.0734173115        0.0302465929       14.1838184408
 Zr        42.4610459339       35.1538076951        1.8061580425
 Zr        29.5984378572       19.0764014208       14.2520135262
 Zr        29.5684694256       19.1639538698        1.8623091812
 Zr        11.0385938306       19.0518655464        1.8328510914
 Zr        11.0445634730       19.1547507873       14.2457273470
 Zr        31.3490787206       16.1060480754        1.8907197950
 Zr        31.3917319114       16.0163282051       14.2685075214
 Zr        18.6012940312       -0.0009200945        1.7683110912
 Zr        18.5066501279       -0.0072873196       14.2086468889
 Zr        12.3027043546       16.3235489287       15.9851420338
 Zr        48.6175813592       18.8333065991        0.0152782897
 Zr        20.3155001951        2.4740019242       15.9852951367
 Zr        40.6438151572       32.6875448949       15.9731134983
 Zr        28.3432270403       16.3344523267        0.0835013199
 Zr        32.6200788512       18.8305229413        0.0578830019
  H        32.3371512537       18.4171636025        6.8759820781
  H        30.9382370413       14.9929209585        8.6829313782
  H        28.8476324074       19.6027264361        8.5881298635
