     574
 i =      197, E =     -4778.8330294761
  C        11.8587680028       14.0535689830       13.7364095923
  C        12.4563545282       12.8906642766       13.0180070864
  C        11.7044902615       12.1713140992       12.0768204651
  C        12.2808992145       11.1091005891       11.3844962922
  C        13.6216463240       10.7397399690       11.6118694886
  C        14.3550512386       11.4438087578       12.5847763785
  C        13.7821204909       12.5088008933       13.2762358247
  C        14.2611699709        9.6490104802       10.8385344897
  C        14.2564371397        9.6568626241        9.4168375413
  C        13.7431861455       10.7589628082        8.6629569171
  C        49.1269191356       21.2331880194       13.8745145786
  C        48.5501704076       22.4012236522       13.1474652554
  C        49.3002558330       23.0686311251       12.1665876725
  C        48.7333372821       24.1077990200       11.4334007911
  C        47.4027586621       24.5093306788       11.6619404158
  C        46.6717115013       23.8603230650       12.6752863218
  C        47.2341638209       22.8153964015       13.4046147367
  C        46.7724962026       25.5870353166       10.8646800378
  C        46.7614419903       25.5574403001        9.4429177431
  C        47.2613898894       24.4423502429        8.6994294842
  C        14.8603839535        8.5705233265        8.7035849463
  C        14.8919841674        8.5971031531       11.5151932228
  C        49.1133087428       21.2034323850        2.1504406484
  C        48.5278866724       22.3648016447        2.8776998692
  C        49.2671509672       23.0255689217        3.8705337861
  C        48.6908424545       24.0601591782        4.6019796901
  C        47.3604072226       24.4568635191        4.3637973840
  C        46.6399253981       23.8118824892        3.3403764399
  C        47.2134760685       22.7759437445        2.6086258540
  C        46.7219578367       25.5318649916        5.1547982706
  C        46.7336431267       25.5282467278        6.5765027786
  C        47.2490976777       24.4290383764        7.3328790592
  C        40.6361624995       17.1453029716        7.3282524571
  C        40.6591286076       17.1737660375        4.5193201706
  C        11.8830663844       14.0865810428        2.2905982405
  C        12.4724742013       12.9108410882        2.9949878431
  C        11.7147907061       12.1773250921        3.9206964870
  C        12.2813939828       11.0948875311        4.5891479807
  C        13.6203447133       10.7214713388        4.3576419567
  C        14.3585238832       11.4373984273        3.3972821343
  C        13.7930817851       12.5185544251        2.7245641032
  C        14.2538979688        9.6246337832        5.1280004338
  C        14.2526026037        9.6445390756        6.5498407330
  C        13.7426535689       10.7534525250        7.2969129394
  C        22.5127238122        3.2441721254       13.7470123967
  C        23.2301737412        4.3468641934       13.0451293752
  C        24.2291407298        4.0609628962       12.1026069195
  C        24.8620340980        5.0960391297       11.4190671264
  C        24.5120354958        6.4399450831       11.6575295985
  C        23.5400638312        6.7174474524       12.6362269037
  C        22.9026418355        5.6840212733       13.3183914020
  C        25.1267921653        7.5426741901       10.8827104915
  C        25.1081049199        7.5342744472        9.4608881081
  C        24.4069024699        6.5370218848        8.7111365557
  C        38.3029862515       31.9297184126       13.8439652560
  C        37.5743703040       30.8397391795       13.1343961866
  C        36.6148909904       31.1424907063       12.1562696912
  C        35.9991569581       30.1213394916       11.4379858567
  C        36.3282412144       28.7726268921       11.6765307760
  C        37.2578891672       28.4772817802       12.6912732096
  C        37.8778051447       29.4971371209       13.4082794947
  C        35.7274055788       27.6805021618       10.8789471151
  C        35.7581610764       27.6968784292        9.4576938899
  C        36.4639958449       28.6996618938        8.7209100570
  C        25.7379883978        8.6022529847        8.7438545493
  C        25.7234090979        8.6166699872       11.5557225314
  C        38.3288479924       31.9628937014        2.1608976312
  C        37.6064797349       30.8907222095        2.9026162943
  C        36.6801675858       31.2012056717        3.9098695947
  C        36.0692285763       30.1837110445        4.6398179507
  C        36.3704826382       28.8308805781        4.3853438946
  C        37.2743107475       28.5303961395        3.3479950193
  C        37.8876043025       29.5443971452        2.6195070709
  C        35.7617797054       27.7325503337        5.1693161212
  C        35.7755563655       27.7237185109        6.5911261588
  C        36.4722425453       28.7125700651        7.3543863220
  C        46.1356255567       26.6208845464        7.2866279870
  C        46.0880064494       26.5802187783        4.4787362633
  C        22.4651613178        3.2569972668        2.2626880614
  C        23.1686293584        4.3645671200        2.9816692140
  C        24.1786263723        4.0752634583        3.9134068369
  C        24.8158180297        5.1025834273        4.6059803452
  C        24.4640394866        6.4504864572        4.3911446892
  C        23.4772203837        6.7331781114        3.4274506721
  C        22.8358115310        5.7060022275        2.7347417527
  C        25.1018881041        7.5450734154        5.1673337151
  C        25.0964029138        7.5347712581        6.5906381415
  C        24.3994717225        6.5380387222        7.3444103820
  C        26.6272735333       17.8644680114       13.7753203921
  C        25.3201539492       17.9035357160       13.0486374624
  C        25.0606043588       18.8933214662       12.0878615909
  C        23.8463863860       18.9106202225       11.4037516033
  C        22.8550447709       17.9407505436       11.6574707364
  C        23.1115440656       16.9727356073       12.6467515863
  C        24.3275666138       16.9504462964       13.3286627574
  C        21.5808187183       17.9225605372       10.8942945823
  C        21.5795135208       17.8955818223        9.4716796895
  C        22.7845303802       17.7700350048        8.7104892211
  C        34.4371552037       17.1939603169       13.9116466608
  C        35.7274080142       17.1484884494       13.1640723313
  C        35.9251702151       16.1938238614       12.1546844865
  C        37.1065132092       16.1838051561       11.4186619490
  C        38.1213055537       17.1267234986       11.6730500981
  C        37.9252353879       18.0623255269       12.7065803939
  C        36.7411144670       18.0783019458       13.4393853392
  C        39.3765781953       17.1378799369       10.8894489267
  C        39.3749055731       17.1603622605        9.4680072179
  C        38.1696589024       17.2894975875        8.7083334880
  C        20.3325269361       17.9121858258        8.7636962348
  C        20.3558719553       17.9282407109       11.5768119438
  C        34.4826452243       17.2481455308        2.1857191191
  C        35.7847371383       17.1727856898        2.9073455790
  C        35.9980232948       16.1919734886        3.8874127445
  C        37.1827696962       16.1769435590        4.6174660302
  C        38.1825192071       17.1410667774        4.3847145817
  C        37.9765188398       18.0954792046        3.3713690562
  C        36.7891298451       18.1164870643        2.6452722877
  C        39.4275145494       17.1620262076        5.1820162885
  C        39.4007339089       17.1725000542        6.6027298840
  C        38.1817679260       17.2929433289        7.3417871081
  C        35.1456789017       26.6439689623        7.2945199909
  C        35.1677429571       26.6646503168        4.4855796309
  C        26.5701900167       17.8265472413        2.3295903934
  C        25.2546403311       17.8702757264        3.0345963686
  C        24.9850175150       18.8761999885        3.9749002588
  C        23.7679576099       18.8959630388        4.6503571205
  C        22.7900165179       17.9108120808        4.4074222161
  C        23.0523797358       16.9313396602        3.4324957589
  C        24.2707903268       16.9086982234        2.7565523427
  C        21.5270624925       17.8881981571        5.1815293845
  C        21.5522488858       17.8774021808        6.6030222503
  C        22.7712065689       17.7618994326        7.3441730281
  C        14.0464425305       17.8277805400        2.2946945445
  C        15.3500805600       17.8813801394        3.0212345228
  C        15.6074146636       18.8804235266        3.9730437622
  C        16.8160936566       18.8968483279        4.6666046901
  C        17.8017712983       17.9171142027        4.4305495221
  C        17.5491288271       16.9424978992        3.4466478580
  C        16.3399369766       16.9213085047        2.7548284309
  C        19.0711117407       17.8964598094        5.1988566565
  C        19.0708905859       17.8911215635        6.6213205193
  C        17.8644718401       17.7909081728        7.3833606402
  C        46.8075093775       17.2203258614        2.1649392129
  C        45.5206487963       17.1641039972        2.9142631111
  C        45.3160488686       16.1911851840        3.9045642618
  C        44.1366763510       16.1797067039        4.6440106734
  C        43.1337007844       17.1412509244        4.4138223668
  C        43.3361146206       18.0944508555        3.3978012495
  C        44.5161034312       18.1099991798        2.6596075310
  C        41.8811114946       17.1570470470        5.2011383460
  C        41.8843818950       17.1564717599        6.6226449325
  C        43.0920737857       17.2483872087        7.3835918185
  C        20.3181189337       17.9018259105        7.3288380205
  C        20.2947754381       17.8775522309        4.5155754790
  C        46.7853882973       17.2304295869       13.8857317184
  C        45.4807252829       17.1240424632       13.1738517791
  C        45.2619414564       16.1294399751       12.2088189889
  C        44.0733253485       16.1057548073       11.4836160082
  C        43.0746759874       17.0733246998       11.7071828324
  C        43.2827443165       18.0357261096       12.7126374134
  C        44.4726554169       18.0662342418       13.4324102363
  C        41.8303212073       17.1026400763       10.9082910069
  C        41.8586563073       17.1274197958        9.4877836049
  C        43.0797938584       17.2321672747        8.7499608571
  C        46.1534048732       26.6373137091        8.7211757486
  C        46.1625316354       26.6561352905       11.5308147177
  C        14.0462150356       17.8313026202       13.7033970526
  C        15.3677847852       17.9037122224       13.0134712137
  C        15.6428098337       18.9157566294       12.0816215531
  C        16.8724558761       18.9500082837       11.4276011091
  C        17.8553209246       17.9714840143       11.6794340563
  C        17.5873266517       16.9889323623       12.6498795065
  C        16.3596584763       16.9539322838       13.3071857791
  C        19.1228005790       17.9427066129       10.9104902444
  C        19.0978308864       17.9132821821        9.4891273014
  C        17.8777147792       17.8008432519        8.7493290992
  C        28.8004377432       14.1288629397        2.4139150457
  C        28.2057538890       12.9488034585        3.1075574154
  C        28.9520068567       12.1763956327        4.0104636895
  C        28.3642658478       11.0897215514        4.6552331034
  C        27.0167336391       10.7489196395        4.4184350193
  C        26.2914914503       11.5021933518        3.4784897567
  C        26.8764445024       12.5886929761        2.8334214236
  C        26.3576490929        9.6564843493        5.1727222526
  C        26.3503167369        9.6763615917        6.5934337707
  C        26.8581383618       10.7859758987        7.3414673164
  C        32.1768634730       21.2457479319        2.1504755871
  C        32.7670921096       22.4152150929        2.8661059345
  C        32.0190845828       23.0904322313        3.8427903341
  C        32.5896909062       24.1296783507        4.5713873665
  C        33.9232017441       24.5209206197        4.3436333455
  C        34.6527556576       23.8652444235        3.3341352677
  C        34.0848432799       22.8208174775        2.6074607374
  C        34.5538956213       25.5942938224        5.1447145989
  C        34.5508604248       25.5622812961        6.5661511172
  C        34.0445622003       24.4453834797        7.3031810739
  C        25.7366999821        8.5984432403        7.3089706682
  C        25.7177444183        8.6101836096        4.4948885920
  C        32.1037008028       21.2271187933       13.8754491363
  C        32.6984194792       22.3735366601       13.1265371428
  C        31.9637815056       23.0354670140       12.1307340543
  C        32.5452611833       24.0651597893       11.3944949560
  C        33.8747782859       24.4630788232       11.6366086971
  C        34.5926393575       23.8135092395       12.6588712649
  C        34.0160516839       22.7780838221       13.3899364764
  C        34.5148629735       25.5455532917       10.8542020123
  C        34.5303429317       25.5378204827        9.4324909182
  C        34.0340520894       24.4341946351        8.6697129331
  C        40.6227683865       17.1348750206        8.7621157306
  C        40.5985896569       17.1254010095       11.5712246935
  C        28.7496848638       14.0672152100       13.8158791819
  C        28.1416194686       12.9183659303       13.0771792231
  C        28.8861025687       12.2170087269       12.1166083335
  C        28.3123592411       11.1561241748       11.4196655737
  C        26.9774919660       10.7708506940       11.6567697288
  C        26.2494762250       11.4605497373       12.6441783246
  C        26.8223389835       12.5214604135       13.3437814205
  C        26.3419401804        9.6777305582       10.8816618594
  C        26.3412729528        9.6884888042        9.4596633737
  C        26.8506799755       10.7935877870        8.7073378956
  C        18.1354279272        3.1810944786        2.3221993939
  C        17.4060676596        4.2782999988        3.0206551178
  C        16.3907167543        3.9998686368        3.9485814086
  C        15.7429864698        5.0398060675        4.6121132738
  C        16.0945101800        6.3835929759        4.3721324913
  C        17.0833895969        6.6531643293        3.4078440654
  C        17.7325031737        5.6158728565        2.7427449491
  C        15.4702604191        7.4912553019        5.1352560523
  C        15.4855454322        7.4905087947        6.5569738998
  C        16.1871344195        6.4969186143        7.3101511456
  C        42.9459273152       31.8595366486        2.0780441379
  C        43.6463503272       30.7719248382        2.8219283485
  C        44.5917363794       31.0932577705        3.8081485778
  C        45.1974484584       30.0877065786        4.5557874222
  C        44.8711763110       28.7346137728        4.3408128358
  C        43.9454956815       28.4202847284        3.3274575822
  C        43.3366566087       29.4254178168        2.5794331015
  C        45.4887538358       27.6553246026        5.1440078255
  C        45.4928981016       27.6809890878        6.5656981273
  C        44.8057334532       28.6889763133        7.3123320447
  C        14.8566054112        8.5630037021        7.2693613917
  C        14.8750515534        8.5630965687        4.4566904719
  C        42.9465161609       31.9615527631       13.8038885382
  C        43.6917609811       30.8854923281       13.0904547181
  C        44.6561689089       31.1914140831       12.1179582001
  C        45.2777004970       30.1718346296       11.4002536535
  C        44.9541284790       28.8214815538       11.6380353904
  C        44.0208593066       28.5238160991       12.6490221957
  C        43.3925766347       29.5405674039       13.3611927739
  C        45.5631671041       27.7241089773       10.8527724254
  C        45.5334169562       27.7174503806        9.4314763510
  C        44.8270047279       28.7076127176        8.6785173668
  C        35.1362012019       26.6308318028        8.7290926390
  C        35.1242096797       26.6038607700       11.5387547060
  C        18.1487497685        3.2470677542       13.7015876145
  C        17.4301372447        4.3439041109       12.9924310882
  C        16.4151470344        4.0525948761       12.0686114065
  C        15.7668516711        5.0832054023       11.3932028220
  C        16.1212951095        6.4284828133       11.6160984001
  C        17.1124092619        6.7118919260       12.5736390323
  C        17.7600741130        5.6830032162       13.2534456481
  C        15.4907958481        7.5241416649       10.8436178788
  C        15.4966280369        7.5074424569        9.4224819405
  C        16.1933888992        6.5057565258        8.6757586115
  H        10.6722212746       12.4651520995       11.9001260284
  H        11.6945089649       10.5502783289       10.6582993445
  H        15.3922860432       11.1696863692       12.7660561080
  H        14.3517694181       13.0725238544       14.0111457623
  H        13.3761222957       11.6310388369        9.1963164348
  H        50.3230051306       22.7486578101       11.9819464171
  H        49.3198801508       24.6231496378       10.6759250490
  H        45.6421619087       24.1609705788       12.8583361449
  H        46.6631083856       22.2900068611       14.1665736994
  H        47.6299552997       23.5759949466        9.2411327814
  H        14.8723881499        8.5884617059       12.6035014557
  H        50.2872338131       22.7027710903        4.0653502720
  H        49.2692790885       24.5756645157        5.3654172946
  H        45.6104892047       24.1090622245        3.1513846462
  H        46.6526502954       22.2537185392        1.8371080100
  H        47.6078879404       23.5519295975        6.8019700478
  H        40.6673173274       17.1400279897        3.4315862863
  H        48.6870933662       14.0950144738       15.7949341624
  H        10.6812125210       12.4661970599        4.0978130402
  H        11.6894944735       10.5242333850        5.3015486268
  H        15.3941119524       11.1598547539        3.2117160648
  H        14.3655880774       13.0882943550        1.9964507368
  H        13.3757946362       11.6220423850        6.7582555440
  H        47.9302016810       14.2186677469        1.7158501926
  H        47.7801647209       14.3741025961       14.4901264689
  H        49.0849317067       18.5527715137        2.8726748976
  H        10.4161147791       14.1342678465        0.0037295296
  H        24.4877495844        3.0209594669       11.9164036816
  H        25.6373936973        4.8731475024       10.6892857344
  H        23.2617218512        7.7518891499       12.8267310973
  H        22.1307140698        5.8897077087       14.0560035484
  H        23.8423762044        5.7808802692        9.2489846039
  H        36.3767276958       32.1854249546       11.9610860843
  H        35.2547322161       30.3591412186       10.6813186855
  H        37.5192554434       27.4385054532       12.8822407230
  H        38.6214435048       29.2774715458       14.1706404272
  H        37.0304629707       29.4481773525        9.2672496599
  H        25.7508122012        8.6012205838       12.6437804311
  H        36.4601569308       32.2458470272        4.1179489191
  H        35.3454453077       30.4293515720        5.4137715858
  H        37.5182803336       27.4896559272        3.1453671733
  H        38.6082108077       29.3179700032        1.8374691921
  H        37.0461840548       29.4705066907        6.8290789070
  H        46.1094372950       26.5875874040        3.3907004520
  H        44.6681627656       35.1160366860       15.8087992233
  H        24.4551778126        3.0361122466        4.0770369278
  H        25.6016312135        4.8689955891        5.3212373839
  H        23.1923105890        7.7684566980        3.2511287114
  H        22.0585501970        5.9236376392        2.0057308831
  H        23.8288331109        5.7834056057        6.8109773240
  H        44.9531720465       34.3898434618        1.6999658770
  H        44.9011004502       34.2065579157       14.4855078561
  H        40.6659897753       33.2093225223        2.8583133824
  H        23.1510390603        1.9575810504        0.0099949141
  H        25.8236255630       19.6430578713       11.8916084188
  H        23.6508518494       19.6849300596       10.6649352511
  H        22.3588788900       16.2141001881       12.8517232114
  H        24.5358606425       16.1892071611       14.0768330635
  H        23.7255879841       17.6513909677        9.2397581822
  H        35.1360562547       15.4728984723       11.9549044381
  H        37.2595178605       15.4357195961       10.6439208089
  H        38.7008267897       18.7988725010       12.9061335558
  H        36.5724234519       18.8147756747       14.2216191481
  H        37.2298738415       17.4155026353        9.2381719733
  H        20.3632975554       17.9732983908       12.6644882668
  H        35.2164511508       15.4586849574        4.0720162382
  H        37.3482407732       15.4148764302        5.3758665119
  H        38.7435313573       18.8450264063        3.1878225864
  H        36.6066074136       18.8709735395        1.8837322062
  H        37.2513512457       17.4214989177        6.7961194006
  H        35.1367755368       26.6931304719        3.3980494729
  H        28.5082770093       21.0807067445       15.9705357078
  H        25.7405631698       19.6368978741        4.1578002234
  H        23.5593493906       19.6793840791        5.3757594840
  H        22.3047895364       16.1650405771        3.2378781882
  H        24.4892296512       16.1411378587        2.0179144645
  H        23.7022407300       17.6371637838        6.7993422351
  H        29.0016644578       21.7172072614        1.7713787788
  H        29.1630923324       21.7433034954       14.6214375396
  H        32.1719272613       18.5847285334        2.9660207841
  H        27.4066790692       19.0785332085        0.0926230915
  H        14.8499028601       19.6397610406        4.1539645033
  H        17.0119671027       19.6777922581        5.3982353922
  H        18.2996800664       16.1783557186        3.2550396696
  H        16.1334383024       16.1554883800        2.0109809890
  H        16.9217498337       17.6740347427        6.8567688047
  H        46.0979775428       15.4578195856        4.0871184661
  H        43.9767161276       15.4175839280        5.4034850253
  H        42.5690267256       18.8446700677        3.2174919741
  H        44.6902955431       18.8596353146        1.8913544388
  H        44.0347507859       17.3633258320        6.8562136809
  H        20.2879830901       17.9095719677        3.4275027802
  H        46.0393531525       15.3906538461       12.0278312290
  H        43.9061950068       15.3351728567       10.7341860886
  H        42.5157643627       18.7862770617       12.8919455026
  H        44.6560296864       18.8291335001       14.1849740474
  H        44.0131786075       17.3332369891        9.2961230912
  H        46.1994179808       26.6826496698       12.6182588657
  H        52.7413037443       21.0626512001        0.1998131503
  H        14.8830619074       19.6693666115       11.8862807098
  H        17.0843508940       19.7376410616       10.7077022376
  H        18.3373620782       16.2271906569       12.8526489229
  H        16.1377907729       16.1820076823       14.0400330430
  H        16.9448315853       17.6915711898        9.2942119159
  H        52.3227377634       21.6733416610       14.2890038414
  H        52.0132744199       21.7020672678        1.5007269040
  H        49.0675908030       18.6075987645       13.1989796392
  H        13.2479071339       19.0158610571       15.9722495317
  H        29.9957735793       12.4328584263        4.1805558304
  H        28.9442278798       10.4874399471        5.3514554305
  H        25.2503846524       11.2493920698        3.2884798603
  H        26.3144366486       13.1882625165        2.1215183401
  H        27.2228764344       11.6552388560        6.8023431195
  H        30.9950734874       22.7740924651        4.0265051702
  H        32.0054418674       24.6527751524        5.3253078380
  H        35.6846866310       24.1588728853        3.1529344724
  H        34.6535948358       22.2882176829        1.8487479168
  H        33.6880671306       23.5778845126        6.7551812849
  H        25.7421375463        8.5982857152        3.4065871172
  H        30.9391132613       22.7238292585       11.9416310259
  H        31.9687950423       24.5804947589       10.6292596503
  H        35.6220140430       24.1093390469       12.8506323571
  H        34.5750224419       22.2545715415       14.1620545198
  H        33.6691969316       23.5579613205        9.1978725943
  H        40.5893649319       17.0793058424       12.6585349012
  H        32.5096376717       14.1494377039        0.2567583235
  H        29.9154740512       12.5178359425       11.9351938259
  H        28.8980275601       10.6069454807       10.6855677842
  H        25.2162674419       11.1767787061       12.8337252153
  H        26.2570328759       13.0696076932       14.0938242504
  H        27.2101238851       11.6676779334        9.2427349496
  H        33.3092872974       14.2327026869       14.4625354977
  H        33.4093777990       14.3882093435        1.6115212531
  H        32.0942392112       18.5032821937       13.1946754625
  H        30.2287795806       14.1920545856        0.0840533339
  H        16.1189025425        2.9633455200        4.1352290894
  H        14.9538087641        4.8203590089        5.3280525437
  H        17.3654108646        7.6860843112        3.2143649772
  H        18.5141182121        5.8186181020        2.0144697506
  H        16.7537157633        5.7395816958        6.7766774703
  H        44.8279299626       32.1403411148        3.9824302211
  H        45.9372200862       30.3414457974        5.3118266522
  H        43.6829300233       27.3782036509        3.1572174534
  H        42.6001656255       29.1900319206        1.8146646842
  H        44.2302929735       29.4366839739        6.7740396817
  H        14.8512813638        8.5464278236        3.3684691229
  H        44.8995756291       32.2341001494       11.9263761411
  H        46.0244522872       30.4130569627       10.6468650642
  H        43.7640817406       27.4840706323       12.8407460705
  H        42.6462620980       29.3177132670       14.1198003505
  H        44.2683982291       29.4704363736        9.2130849438
  H        35.0817997730       26.6153617593       12.6262379125
  H        36.6050454536       35.1341590679        0.1857212083
  H        16.1441817281        3.0130118965       11.8987560724
  H        14.9746658379        4.8563300179       10.6829734000
  H        17.3956992207        7.7473869927       12.7507267764
  H        18.5427217839        5.8935346306       13.9784299350
  H        16.7648739301        5.7555346358        9.2141654600
  H        36.2785298917       34.4826483817       14.2679950130
  H        36.3805947691       34.2093990548        1.5048234999
  H        40.5803584897       33.2028348471       13.1484801455
  H        17.4711427003        1.9476759294       15.9691014893
  H        28.8907812688       19.0851643766        4.4254355535
  H        29.5273429478       19.5134856298       11.5664105128
  H        31.6539936582       15.7372729263       11.5987131479
  H        30.7323263459       15.7510455470        4.2902028502
  H        28.5644520473       17.6293742013        6.5370046669
  H        30.2253693674       14.0040734943        7.0535903103
  H        31.6013604331       19.7156591561        9.6331533086
  H        32.6143249501       17.3650381756        9.3085598773
  H        28.6294528569       16.7041371848        8.6157839539
  H        18.8535122043        0.8692186535        4.3403703734
  H        40.5280011728       35.2291294077       11.9468594103
  H        42.3237553714       34.4183734775       11.5856290530
  H        22.0879694898        0.6917915665        4.3569765979
  H        11.5966066668       18.7132202181        4.3878039393
  H        52.2650363603       18.4312330788       11.6721433161
  H        49.2551830618       16.4771934970       11.5795170467
  H        10.1504285288       15.7982812481        4.2978582162
  H        50.8502358354       17.6924193191       11.9491633986
  H        10.0462035756       17.3945637290        4.0570230532
  H        20.2146557132        0.0023573018        4.0471955311
  H        39.1836732713       36.1246236391       11.6813479380
 Ni        30.9497429163       17.8190575985       10.9906720807
 Ni        30.9886024599       15.9793828819        8.4150455098
 Ni        29.9275141513       18.7489728381        8.0859455074
 Ni        30.5646931701       17.7780912118        5.4044347976
  O        10.6499460974       14.3650473291       13.4806846257
  O        12.6131835608       14.6574646534       14.5787606915
  O        49.1481340578       16.8458895405       15.9845709207
  O        50.3503144154       20.9358977211       13.6429238017
  O        48.3485840180       20.5934074775       14.6607757138
  O        11.0517728228       17.0538731551       14.4955716223
  O        50.3210704423       20.8816972124        2.4119679669
  O        48.3467744267       20.5867973937        1.3322695119
  O        49.5442893081       18.2484609555        2.0733108272
  O        12.3591743803       18.6246723353        0.0048251810
  O        48.6932599809       14.1485643931       14.7461896510
  O         8.2099402459       14.2103118254        1.3276266998
  O        10.7354115197       14.5066707045        2.6694411906
  O        12.5718491085       14.5827587579        1.3335922923
  O        22.8445962538        2.0426151463       13.4820247219
  O        21.6066759771        3.5929949797       14.5836163222
  O        42.0582634759       34.1375027284       15.9739979027
  O        37.9818702665       33.1379474141       13.5674449604
  O        39.2183305132       31.5763219226       14.6617579145
  O        20.3085510346        1.0400485091       14.4972338634
  O        38.0250276757       33.1865876441        2.4199703479
  O        39.2192823902       31.5839932307        1.3314340731
  O        40.6523798039       33.7696506929        2.0654404036
  O        18.2557044220        1.3763211644        0.0019335807
  O        44.6222149160       35.1005295908       14.7536286285
  O        24.2054126184        0.0000427497        1.3259485256
  O        22.7535338155        2.0581371793        2.5894987454
  O        21.6259014477        3.5977563619        1.3505871085
  O        27.4997258959       18.7563330414       13.4938413274
  O        26.7664478276       16.9361379691       14.6493204837
  O        30.6693928930       19.4061191420        0.0809331208
  O        33.5847729983       16.2744455527       13.6629044703
  O        34.2764317097       18.1665766088       14.7303001992
  O        29.5729317353       17.0652817500       14.5793477695
  O        33.6207429877       16.3319906821        2.4197582688
  O        34.3102226295       18.2463159218        1.4098564682
  O        31.7114508663       18.3217337433        2.1530358318
  O        30.3230657832       15.1584318522        0.0995267411
  O        28.5550929742       21.0339741518       14.8985045932
  O        28.5141117668       20.9535804748        1.4184322211
  O        27.4567413427       18.6797659575        2.6647909363
  O        26.6949792273       16.9290734987        1.4187622546
  O        13.1490178547       18.6926873964        2.5926861307
  O        13.9191761802       16.9160947512        1.4098836526
  O        50.5965020333       19.3502703551        0.0254258744
  O        47.6841683050       16.3268436426        2.4222226750
  O        46.9526522919       18.1760418267        1.3291657561
  O        11.0700847325       17.0154172957        1.4947739513
  O        47.6761268105       16.3355188393       13.6480630064
  O        46.9278631270       18.2357706435       14.6599020094
  O        49.5688922253       18.3177039117       13.9771378265
  O        10.3186944219       15.1001065786        0.0021641574
  O        52.6707874208       21.0278764877        1.2469248710
  O        12.1468638233       20.8912098823       14.6681438323
  O        13.1087692203       18.6134508326       13.3203797531
  O        13.9571718639       16.9869770533       14.6604153258
  O        29.9746983727       14.5196101323        2.7618431252
  O        28.0875208842       14.6545399113        1.4990245574
  O        32.1419658406       16.8569936934        0.0919633752
  O        30.9646704486       20.9489245561        2.4181100005
  O        32.9455895306       20.6109989160        1.3438795754
  O        29.5763242697       17.0790733948        1.5788961328
  O        30.8731899938       20.9490614493       13.6601643172
  O        32.8789907553       20.5881007109       14.6621125863
  O        31.6869080400       18.2582672115       14.0457145448
  O        28.2907138006       18.6768973142        0.0862869694
  O        32.4902847397       14.2150902986        1.3366546469
  O        32.4062192888       14.2135961121       14.8217120264
  O        29.9219913939       14.4356908019       13.4909286836
  O        28.0396089223       14.5894798887       14.7488614045
  O        17.8893412658        1.9667262304        2.6678733293
  O        18.9564509371        3.5271740677        1.4130627744
  O        39.1687163653       34.1389067316        0.0023100495
  O        43.2802493799       33.0590421690        2.3367617838
  O        42.0345737841       31.5065016696        1.2467311369
  O        20.3179492629        1.0370849369        1.4851273169
  O        43.2760730630       33.1826170305       13.5698095186
  O        42.0052791021       31.5841244944       14.5778812068
  O        40.5790396740       33.7751597102       13.9308604576
  O        22.3674250687        1.3850269969        0.0031986378
  O        36.6727802971       35.0998758911        1.2383414039
  O        16.4456415422        0.0643421427       14.6631809797
  O        17.9365416712        2.0434468383       13.3213659916
  O        18.9193431768        3.5930997179       14.6609297286
  O        29.8974008143       18.8355933030       12.1610467595
  O        29.7447543226       18.8365257305        4.0248060761
  O        31.2175521582       16.3958167587       12.1706495153
  O        31.3443932778       16.4844772695        4.0805324298
  O        32.0142910808       16.7796071831        9.8063904436
  O        29.4817253206       17.0766153729        8.9100675160
  O        29.8233507736       14.8844675176        7.1609504470
  O        31.6453247499       16.9935292571        6.6685791164
  O        30.7438737920       19.2671537659        9.7269802714
  O        29.1538625499       18.4063431754        6.4940695826
  O        39.4568474174       35.2439940236       11.9968648571
  O        19.1414454786        0.0047579870        3.9956454256
  O        41.9694681227       35.1724562199       12.0820171521
  O        21.6913579519       -0.0693787811        3.9010960017
  O        51.3651917542       18.6142932047       12.0003028591
  O        10.7509209589       18.7472277468        3.9100157232
  O        50.0796598335       16.4127998095       12.0866676698
  O         9.5245055814       16.4830671857        3.9962981245
 Zr         9.2972460924       16.0527811550       14.1774005856
 Zr        49.8368583499       16.0066207641        1.7513449689
 Zr        22.0730246877        0.0297908258       14.1839924706
 Zr        42.4608709537       35.1535580521        1.8062248360
 Zr        29.6077453085       19.0973114020       14.2962839245
 Zr        29.5917007731       19.1685431519        1.8737522931
 Zr        11.0386170149       19.0518154349        1.8327967566
 Zr        11.0445377393       19.1547440368       14.2457499662
 Zr        31.3785494538       16.1346159949        1.8738648223
 Zr        31.3849562202       16.0163921084       14.2955143762
 Zr        18.6011386019       -0.0010997491        1.7683117877
 Zr        18.5064956120       -0.0073964929       14.2087062746
 Zr        12.3026648668       16.3237280613       15.9850718629
 Zr        48.6172591053       18.8332293358        0.0151511090
 Zr        20.3158408492        2.4741043437       15.9858940582
 Zr        40.6435945216       32.6870853902       15.9731816748
 Zr        28.3438896942       16.3465143307        0.0774074707
 Zr        32.6427255951       18.8505531983        0.0561822904
  H        32.3027308477       16.5072732254        6.1315391786
  H        32.0585297216       15.0028364154        8.2852523399
  H        30.0877689916       15.3975351356        6.3593335915
