     574
 i =      222, E =     -4778.8646714230
  C        11.8588665010       14.0534383822       13.7364367496
  C        12.4563861092       12.8906373799       13.0180732857
  C        11.7045187671       12.1713121055       12.0768422591
  C        12.2809499443       11.1091560306       11.3844842093
  C        13.6216761134       10.7397060479       11.6119093829
  C        14.3550638298       11.4437459031       12.5848627411
  C        13.7821291895       12.5086815310       13.2763871245
  C        14.2611683777        9.6490195064       10.8385150405
  C        14.2562733956        9.6568367330        9.4168252516
  C        13.7430087328       10.7589276631        8.6629465619
  C        49.1270247533       21.2332155879       13.8745309692
  C        48.5502938879       22.4012546328       13.1474968812
  C        49.3002053559       23.0684264320       12.1663233840
  C        48.7332499521       24.1075726530       11.4331343409
  C        47.4028119874       24.5093962444       11.6619911862
  C        46.6720180701       23.8607430655       12.6757589543
  C        47.2344925269       22.8158355842       13.4050797497
  C        46.7724690084       25.5870231510       10.8647194061
  C        46.7612461015       25.5572852102        9.4429675601
  C        47.2611319207       24.4421734568        8.6994724828
  C        14.8601664467        8.5704820884        8.7035591890
  C        14.8920742526        8.5971639332       11.5151734917
  C        49.1133749278       21.2034762242        2.1504387192
  C        48.5280199415       22.3648852048        2.8776527135
  C        49.2670719624       23.0252332936        3.8709285131
  C        48.6907674056       24.0598307427        4.6023682658
  C        47.3605194138       24.4569423426        4.3638135414
  C        46.6403342238       23.8124575459        3.3398592848
  C        47.2138590534       22.7765240493        2.6081020333
  C        46.7220045035       25.5318767773        5.1548184485
  C        46.7335071163       25.5281089138        6.5765237554
  C        47.2488357335       24.4288548702        7.3329226130
  C        40.6371003229       17.1501947099        7.3273577439
  C        40.6595028565       17.1915599309        4.5182628049
  C        11.8830195887       14.0864737259        2.2906383509
  C        12.4723911017       12.9108444465        2.9949800427
  C        11.7147762561       12.1773620485        3.9208005935
  C        12.2813822127       11.0948747995        4.5891340690
  C        13.6203690796       10.7215110397        4.3576525036
  C        14.3584987803       11.4374199674        3.3972306290
  C        13.7930530329       12.5186212541        2.7246117351
  C        14.2539016055        9.6246669956        5.1279888614
  C        14.2524274181        9.6445169583        6.5498232274
  C        13.7424802924       10.7534236745        7.2969049472
  C        22.5135604474        3.2444934121       13.7475268178
  C        23.2321776918        4.3469602370       13.0473700938
  C        24.2282165858        4.0610596333       12.1016581887
  C        24.8610826859        5.0962950454       11.4185201135
  C        24.5140964324        6.4404671884       11.6601895110
  C        23.5459779499        6.7178261533       12.6427734230
  C        22.9083767834        5.6842910669       13.3245603570
  C        25.1276727575        7.5428003665       10.8840811589
  C        25.1040889894        7.5347607118        9.4623773106
  C        24.3972179556        6.5394278289        8.7155833444
  C        38.3035705372       31.9301634367       13.8435684217
  C        37.5758995030       30.8402711283       13.1324550761
  C        36.6189654313       31.1435104781       12.1520842044
  C        36.0040453692       30.1226113622       11.4326663592
  C        36.3312241938       28.7738438374       11.6730207718
  C        37.2587351627       28.4780694851       12.6895492085
  C        37.8780518525       29.4976812337       13.4073731368
  C        35.7299667121       27.6813719697       10.8762585248
  C        35.7627563021       27.6946756373        9.4550299094
  C        36.4705615028       28.6952798456        8.7171415444
  C        25.7342292196        8.6011785449        8.7430664804
  C        25.7278062127        8.6158889167       11.5549029960
  C        38.3288425708       31.9622516717        2.1606973999
  C        37.6075044620       30.8877948144        2.9014281031
  C        36.6794747192       31.1945669575        3.9081590433
  C        36.0710892276       30.1744869683        4.6369586963
  C        36.3766103971       28.8225924085        4.3821222673
  C        37.2816893964       28.5257530472        3.3448796818
  C        37.8922665274       29.5423234518        2.6175079863
  C        35.7711373600       27.7223735764        5.1665120639
  C        35.7838541526       27.7156738399        6.5884187286
  C        36.4801089507       28.7057208272        7.3506188737
  C        46.1354282605       26.6207074854        7.2866630029
  C        46.0882260242       26.5803457324        4.4787637765
  C        22.4629264917        3.2559344976        2.2625212501
  C        23.1617191828        4.3629346056        2.9836318332
  C        24.1664298256        4.0735988821        3.9208664066
  C        24.7998979107        5.1013349559        4.6153749497
  C        24.4491523712        6.4486542085        4.3960480450
  C        23.4674364308        6.7311995668        3.4272726332
  C        22.8294570817        5.7036751635        2.7328717009
  C        25.0858973371        7.5436729570        5.1701684912
  C        25.0833858520        7.5346603965        6.5930821839
  C        24.3856025559        6.5402585986        7.3489491807
  C        26.6190386552       17.8588704054       13.7750508970
  C        25.3103107552       17.9052469908       13.0537279099
  C        25.0555138868       18.8935258661       12.0899243152
  C        23.8425820548       18.9118227714       11.4038355267
  C        22.8485753397       17.9450260601       11.6590836218
  C        23.1001393655       16.9798128169       12.6523830745
  C        24.3148355690       16.9559897440       13.3361784053
  C        21.5760001774       17.9269812553       10.8940502354
  C        21.5761152136       17.8979021629        9.4715855107
  C        22.7813064091       17.7676774778        8.7115105039
  C        34.4406177024       17.1924602499       13.9139479705
  C        35.7322169828       17.1455967327       13.1674898225
  C        35.9330066049       16.1855232319       12.1635426224
  C        37.1132388759       16.1758792012       11.4256523111
  C        38.1241204073       17.1247503266       11.6731965352
  C        37.9256195257       18.0654763291       12.7015062783
  C        36.7423804199       18.0810315562       13.4359475833
  C        39.3787346169       17.1362112942       10.8887189694
  C        39.3762718015       17.1560105483        9.4673824571
  C        38.1698671070       17.2743611539        8.7077216874
  C        20.3297021283       17.9152889546        8.7627248104
  C        20.3509010006       17.9336315957       11.5758182689
  C        34.4812344608       17.2529450745        2.1836410860
  C        35.7837457317       17.1810756774        2.9078489548
  C        36.0151277794       16.1805501874        3.8637713787
  C        37.1994684564       16.1689356291        4.5950361189
  C        38.1825762906       17.1547089554        4.3850907748
  C        37.9600616436       18.1297329135        3.3953673657
  C        36.7721134755       18.1479471225        2.6696291808
  C        39.4285495579       17.1740428795        5.1815381727
  C        39.4017445559       17.1742768624        6.6019077154
  C        38.1816667161       17.2798938258        7.3412439159
  C        35.1528748444       26.6374855643        7.2932027102
  C        35.1802948035       26.6515935434        4.4841129807
  C        26.5699104038       17.8239788247        2.3295438961
  C        25.2551169894       17.8666831693        3.0364273381
  C        24.9894630297       18.8684392237        3.9820424289
  C        23.7721156409       18.8894594836        4.6568357172
  C        22.7907122692       17.9091022513        4.4085964354
  C        23.0501551618       16.9327040196        3.4298911844
  C        24.2686974271       16.9091336355        2.7542874610
  C        21.5272463472       17.8877051111        5.1816137153
  C        21.5510591081       17.8761650798        6.6031146066
  C        22.7691348440       17.7571210871        7.3452097954
  C        14.0465908455       17.8281378547        2.2943047088
  C        15.3504300094       17.8826491847        3.0199969750
  C        15.6080632771       18.8829257550        3.9704417770
  C        16.8169366310       18.9001120395        4.6635662720
  C        17.8024093955       17.9199967995        4.4283022374
  C        17.5495869033       16.9442917829        3.4455473639
  C        16.3402249451       16.9223636563        2.7541191141
  C        19.0712797769       17.8991140154        5.1971928986
  C        19.0697948190       17.8943257108        6.6196091993
  C        17.8626814927       17.7958949895        7.3807602904
  C        46.8079479375       17.2212395989        2.1650260731
  C        45.5210622533       17.1681126137        2.9148203120
  C        45.3131080389       16.1951743311        3.9042309462
  C        44.1335443004       16.1875330956        4.6434602597
  C        43.1342506752       17.1529310487        4.4134674110
  C        43.3400296905       18.1063749571        3.3985536978
  C        44.5201368354       18.1179355653        2.6606250621
  C        41.8815443783       17.1709356496        5.2001792271
  C        41.8850172887       17.1665074172        6.6215462034
  C        43.0929049351       17.2587593578        7.3822805454
  C        20.3164802823       17.9035865254        7.3279623620
  C        20.2953633877       17.8790918245        4.5148328457
  C        46.7860751141       17.2309883591       13.8854498500
  C        45.4818118832       17.1261891352       13.1722288878
  C        45.2624985581       16.1313906750       12.2076672276
  C        44.0741444660       16.1087592412       11.4820211938
  C        43.0768103642       17.0776513069       11.7050611110
  C        43.2855948094       18.0408881692       12.7093860450
  C        44.4752930944       18.0702794176       13.4295172135
  C        41.8322121192       17.1064338845       10.9067093762
  C        41.8600223072       17.1320572504        9.4863418184
  C        43.0809273798       17.2400844969        8.7485715209
  C        46.1532141954       26.6371505921        8.7212145359
  C        46.1626288153       26.6562108002       11.5308395748
  C        14.0455527542       17.8314217787       13.7035093274
  C        15.3661898522       17.9047388391       13.0130587353
  C        15.6390750821       18.9173520901       12.0812508928
  C        16.8679484753       18.9529100378       11.4261911687
  C        17.8516124219       17.9751985744       11.6774347485
  C        17.5857165304       16.9919991042       12.6477599655
  C        16.3588228910       16.9557046609       13.3061252925
  C        19.1186696828       17.9476338652       10.9085369725
  C        19.0945034767       17.9179906483        9.4872530202
  C        17.8747937847       17.8064220308        8.7467509159
  C        28.7880706364       14.1135377218        2.4021962561
  C        28.1935621378       12.9289220268        3.0852530468
  C        28.9367761636       12.1671452703        3.9994159146
  C        28.3480227423       11.0850461562        4.6496055556
  C        27.0034847464       10.7392516386        4.4073555893
  C        26.2819790461       11.4796541233        3.4534998949
  C        26.8674955500       12.5622646467        2.8030141498
  C        26.3437285075        9.6529387819        5.1686730003
  C        26.3419399254        9.6735732662        6.5898142977
  C        26.8579489628       10.7806633352        7.3355809121
  C        32.1798721266       21.2374327572        2.1443037514
  C        32.7779727933       22.4002086324        2.8678328056
  C        32.0290001280       23.0818436380        3.8393660592
  C        32.6009601164       24.1203751866        4.5682445496
  C        33.9371343993       24.5057026133        4.3454794384
  C        34.6687316074       23.8424844844        3.3424343209
  C        34.0991504244       22.7983907156        2.6158067082
  C        34.5664524225       25.5818932894        5.1446062808
  C        34.5591607150       25.5544150677        6.5660872265
  C        34.0479399548       24.4411369508        7.3051910470
  C        25.7280532398        8.5974819401        7.3082345313
  C        25.7001574640        8.6069923202        4.4945372631
  C        32.1026404078       21.2272693967       13.8722593129
  C        32.6953354090       22.3783825043       13.1284637356
  C        31.9617597617       23.0402628678       12.1318093276
  C        32.5438029480       24.0698365657       11.3958989876
  C        33.8732763476       24.4673860245       11.6385733407
  C        34.5897135119       23.8189847020       12.6627012152
  C        34.0123015405       22.7840554993       13.3938941159
  C        34.5147193809       25.5479928426       10.8546664341
  C        34.5318810364       25.5373789513        9.4329668089
  C        34.0340151304       24.4334154811        8.6716889160
  C        40.6239389665       17.1364686039        8.7610854990
  C        40.6008527299       17.1276444504       11.5701620490
  C        28.7476002468       14.0644123603       13.8153038097
  C        28.1438264915       12.9130594756       13.0790286966
  C        28.8872771134       12.2196676439       12.1116934402
  C        28.3149703351       11.1595191974       11.4125794520
  C        26.9827592413       10.7676693670       11.6541104455
  C        26.2563610963       11.4494203047       12.6485487298
  C        26.8275587074       12.5091946826       13.3506742826
  C        26.3465500245        9.6754840608       10.8786324567
  C        26.3431554911        9.6858368865        9.4563999085
  C        26.8552663761       10.7877409034        8.7015177497
  C        18.1355336207        3.1811796320        2.3222295183
  C        17.4062315027        4.2783777776        3.0208044423
  C        16.3903388777        4.0000006586        3.9481431413
  C        15.7426279981        5.0399648461        4.6116661143
  C        16.0946752426        6.3836886090        4.3721508842
  C        17.0842430684        6.6532314844        3.4085812124
  C        17.7333275724        5.6159066526        2.7434942134
  C        15.4703223298        7.4913417154        5.1352440535
  C        15.4854066922        7.4905103102        6.5569640464
  C        16.1869221250        6.4968569311        7.3101274257
  C        42.9459428699       31.8596347482        2.0780012718
  C        43.6464317162       30.7719413092        2.8219328784
  C        44.5917295585       31.0933178189        3.8081953476
  C        45.1974917463       30.0877989830        4.5558753225
  C        44.8713115716       28.7347071078        4.3408347256
  C        43.9457813433       28.4203179634        3.3273630030
  C        43.3369191417       29.4254352236        2.5793293378
  C        45.4888382348       27.6553776512        5.1440316510
  C        45.4928192337       27.6808933747        6.5657332158
  C        44.8057018974       28.6889291460        7.3123546095
  C        14.8564238887        8.5629869156        7.2693413608
  C        14.8751913667        8.5632072997        4.4566675540
  C        42.9464935220       31.9617150421       13.8038911097
  C        43.6918028201       30.8855517444       13.0904209050
  C        44.6562507300       31.1914750390       12.1179953927
  C        45.2778061098       30.1718889847       11.4002726780
  C        44.9541919110       28.8215635418       11.6380508219
  C        44.0209233183       28.5238919119       12.6490265809
  C        43.3926436422       29.5406534592       13.3611940964
  C        45.5631767667       27.7241306807       10.8528020731
  C        45.5332789294       27.7173285083        9.4315065549
  C        44.8269660119       28.7075630208        8.6785431510
  C        35.1406278358       26.6277399306        8.7278677470
  C        35.1245466893       26.6069603695       11.5376221226
  C        18.1487347356        3.2471612464       13.7014913959
  C        17.4302044522        4.3439573732       12.9922155548
  C        16.4146783200        4.0526739781       12.0689796619
  C        15.7663899213        5.0833062408       11.3935910658
  C        16.1213543941        6.4285174615       11.6160146575
  C        17.1130880900        6.7119025185       12.5728992004
  C        17.7607620342        5.6830018437       13.2526829896
  C        15.4907669685        7.5241672147       10.8435719542
  C        15.4964601641        7.5074237476        9.4224407521
  C        16.1931402903        6.5056696587        8.6757352273
  H        10.6722619805       12.4651431444       11.9000996077
  H        11.6945835465       10.5503467284       10.6582628195
  H        15.3922746801       11.1695725630       12.7662024569
  H        14.3518175692       13.0723106648       14.0113355137
  H        13.3760405698       11.6310576553        9.1962749802
  H        50.3228543399       22.7482667034       11.9814399074
  H        49.3196926464       24.6227320564       10.6754519033
  H        45.6426569805       24.1617927982       12.8591988358
  H        46.6636518823       22.2907690025       14.1674183087
  H        47.6297618486       23.5758453843        9.2411677567
  H        14.8727032835        8.5885681051       12.6034848321
  H        50.2870077283       22.7021422964        4.0660488040
  H        49.2690961586       24.5750551755        5.3660760049
  H        45.6111332731       24.1101503205        3.1504106017
  H        46.6532766886       22.2547312257        1.8361181080
  H        47.6077096705       23.5517760330        6.8020287013
  H        40.6673763756       17.1641419464        3.4303451589
  H        48.6871828012       14.0949621267       15.7949464519
  H        10.6811711181       12.4661210311        4.0979118129
  H        11.6895399972       10.5241960347        5.3015598551
  H        15.3941067503       11.1599398986        3.2116732170
  H        14.3655871874       13.0883131322        1.9964887398
  H        13.3757080186       11.6220625019        6.7582741485
  H        47.9303289211       14.2180703290        1.7161075580
  H        47.7801232336       14.3737133826       14.4902330812
  H        49.0851426485       18.5530585872        2.8728939668
  H        10.4164373093       14.1342349505        0.0038473418
  H        24.4844406558        3.0210054208       11.9125446851
  H        25.6337367089        4.8735609427       10.6858335600
  H        23.2703841735        7.7524364554       12.8363365155
  H        22.1391156518        5.8901100016       14.0649040753
  H        23.8319435796        5.7853225980        9.2554298472
  H        36.3821885265       32.1866188425       11.9561108150
  H        35.2614549114       30.3607381707       10.6742947822
  H        37.5187067670       27.4391433430       12.8815639802
  H        38.6200438568       29.2779426320       14.1713163195
  H        37.0369803613       29.4443360409        9.2628337578
  H        25.7584301073        8.6007904725       12.6428787509
  H        36.4561411102       32.2383659031        4.1170941998
  H        35.3461677690       30.4175787603        5.4106681569
  H        37.5291037103       27.4859970504        3.1413629406
  H        38.6140347017       29.3186227159        1.8357654284
  H        37.0548429820       29.4624318437        6.8243937433
  H        46.1099375281       26.5879266749        3.3907338847
  H        44.6683799480       35.1162449577       15.8088808130
  H        24.4417953570        3.0345054993        4.0865364582
  H        25.5823751214        4.8693688394        5.3347559125
  H        23.1846126903        7.7665932901        3.2484186344
  H        22.0560090055        5.9198526862        1.9994619739
  H        23.8108547313        5.7874161640        6.8173886971
  H        44.9540851882       34.3905751694        1.7003649651
  H        44.9020304865       34.2068987750       14.4855824631
  H        40.6661369790       33.2094755743        2.8583839312
  H        23.1506795504        1.9580725865        0.0102389611
  H        25.8218148611       19.6400489548       11.8934768220
  H        23.6497291358       19.6842001298       10.6622910711
  H        22.3448248960       16.2240980118       12.8583609366
  H        24.5204195046       16.1962215477       14.0866634399
  H        23.7213739428       17.6462675116        9.2418265021
  H        35.1488529510       15.4572129263       11.9709241424
  H        37.2688930705       15.4225757310       10.6564258364
  H        38.6988354643       18.8059011100       12.8959651204
  H        36.5714135879       18.8211465669       14.2143176154
  H        37.2294672685       17.3888943571        9.2389640079
  H        20.3574668991       17.9794955143       12.6634490624
  H        35.2523032806       15.4231045329        4.0284241673
  H        37.3778553023       15.3913164368        5.3346132128
  H        38.7149233836       18.8955813331        3.2293125036
  H        36.5761640083       18.9168820487        1.9259957230
  H        37.2503840182       17.3965345268        6.7945384135
  H        35.1511420828       26.6775580944        3.3964553519
  H        28.4924676985       21.0731214663       15.8736579714
  H        25.7492349351       19.6235053383        4.1702586023
  H        23.5659727733       19.6701020345        5.3859109692
  H        22.3004625422       16.1692765279        3.2321737429
  H        24.4854637629       16.1436479810        2.0130343762
  H        23.6999109503       17.6273687548        6.8010223606
  H        29.0089005693       21.7190042305        1.7431951136
  H        29.2091050695       21.7061739483       14.5725089082
  H        32.0934424337       18.5727117972        2.9154507326
  H        27.3693769847       19.0177197983        0.0803627952
  H        14.8505710642       19.6424150395        4.1507785438
  H        17.0131491701       19.6818649557        5.3942391441
  H        18.3000793486       16.1798953203        3.2547304974
  H        16.1334518166       16.1556373854        2.0112903831
  H        16.9202272096       17.6797981564        6.8535248484
  H        46.0924660694       15.4589507645        4.0863520065
  H        43.9704323172       15.4254447313        5.4022980094
  H        42.5757717073       18.8595761151        3.2186711564
  H        44.6975970523       18.8674837285        1.8930620691
  H        44.0351534352       17.3762891023        6.8547040103
  H        20.2895108618       17.9114336445        3.4267723712
  H        46.0391101503       15.3915369980       12.0276173563
  H        43.9061963947       15.3380270267       10.7329183025
  H        42.5195728226       18.7926504199       12.8877021613
  H        44.6597201171       18.8334478755       14.1815390362
  H        44.0141242036       17.3419783911        9.2949410799
  H        46.1997437054       26.6829192635       12.6182706939
  H        52.7413928261       21.0627024192        0.1998436747
  H        14.8782719391       19.6701254217       11.8869182073
  H        17.0788057619       19.7408342620       10.7063192040
  H        18.3368320796       16.2310677109       12.8495216118
  H        16.1380666428       16.1834996262       14.0389999412
  H        16.9413912204       17.6983097056        9.2909559890
  H        52.3230040894       21.6734972885       14.2889932778
  H        52.0136044599       21.7023361201        1.5007835208
  H        49.0681906161       18.6078519039       13.1987888888
  H        13.2481018057       19.0158468132       15.9723362519
  H        29.9757499553       12.4314838324        4.1845564066
  H        28.9254430311       10.4950439402        5.3580742405
  H        25.2429065900       11.2218273362        3.2593140766
  H        26.3080331648       13.1551737328        2.0835427979
  H        27.2288913090       11.6474074050        6.7965279075
  H        31.0015711225       22.7725932260        4.0161465382
  H        32.0149526093       24.6492871961        5.3167900306
  H        35.7026275279       24.1314035783        3.1646677726
  H        34.6683915243       22.2616247420        1.8602939306
  H        33.6888332302       23.5743793913        6.7578971859
  H        25.7222371274        8.5930147466        3.4062446179
  H        30.9374059205       22.7290527347       11.9406050039
  H        31.9678358108       24.5849527205       10.6301361565
  H        35.6187218591       24.1153040623       12.8557283964
  H        34.5701766906       22.2612212160       14.1673296818
  H        33.6641889329       23.5604122706        9.2017856937
  H        40.5921699550       17.0828122013       12.6575182210
  H        32.5060312918       14.1508775617        0.2507026553
  H        29.9140946146       12.5269460422       11.9261688841
  H        28.8997719189       10.6174143710       10.6725704475
  H        25.2252869874       11.1601672281       12.8413445242
  H        26.2633556442       13.0512785344       14.1059506260
  H        27.2229945118       11.6597757834        9.2342332631
  H        33.3099671287       14.2241971641       14.4638081499
  H        33.4087446808       14.3880719528        1.6051524674
  H        32.1087872884       18.4897454387       13.1555674145
  H        30.2186059495       14.1898321039        0.0728520665
  H        16.1181578220        2.9635064239        4.1344168845
  H        14.9530382561        4.8206024963        5.3271791942
  H        17.3668508160        7.6860904313        3.2156357741
  H        18.5155383083        5.8186162689        2.0158503394
  H        16.7535341851        5.7395575478        6.7766256033
  H        44.8278440590       32.1404248519        3.9824892336
  H        45.9372320480       30.3416243287        5.3119266295
  H        43.6834195957       27.3782031307        3.1570195188
  H        42.6005728753       29.1901071099        1.8144063161
  H        44.2305017769       29.4368062403        6.7740303273
  H        14.8516831790        8.5466132120        3.3684394418
  H        44.8997002319       32.2341671648       11.9264581269
  H        46.0246397107       30.4131562279       10.6469702330
  H        43.7642371062       27.4841370536       12.8408062772
  H        42.6463614079       29.3179064657       14.1198617454
  H        44.2685848273       29.4705477104        9.2131261382
  H        35.0809578078       26.6209711704       12.6250264874
  H        36.6052563653       35.1341867094        0.1856870839
  H        16.1433477283        3.0131210565       11.8995182899
  H        14.9738294368        4.8565132247       10.6837522854
  H        17.3969392320        7.7473313277       12.7494577784
  H        18.5439802743        5.8934828706       13.9770666129
  H        16.7646384611        5.7554694476        9.2141636012
  H        36.2787208413       34.4826936461       14.2679650355
  H        36.3811666156       34.2091604373        1.5046573869
  H        40.5808295649       33.2032900967       13.1481066327
  H        17.4711523725        1.9481522861       15.9691229509
  H        28.9551615502       19.3345841527        4.4473403779
  H        29.8332213253       19.6594105306       11.5569907579
  H        32.0240788375       15.8215500025       11.5973261315
  H        32.2898487313       16.3127573774        4.4187350497
  H        28.1066744615       17.7154004208        6.7282727434
  H        29.7111989119       15.0970563473        4.8282307820
  H        31.7207950345       19.9132182788        9.3728780431
  H        33.2933832919       17.1888717836        9.3837695561
  H        29.0025415900       16.6111674506        9.3922120323
  H        18.8534876802        0.8690257789        4.3403829225
  H        40.5282819165       35.2290694691       11.9467899166
  H        42.3247463693       34.4194954507       11.5847841946
  H        22.0875735188        0.6920933600        4.3568800083
  H        11.5967402150       18.7130239391        4.3878338414
  H        52.2648538441       18.4312300230       11.6719236309
  H        49.2547861771       16.4768226337       11.5794617600
  H        10.1502228383       15.7981778339        4.2978609650
  H        50.8500939423       17.6925198549       11.9490410061
  H        10.0462461733       17.3945163008        4.0570144398
  H        20.2148233026        0.0022457603        4.0470909257
  H        39.1841222861       36.1248966831       11.6814326560
 Ni        30.9863091370       17.7432653075       10.6657127608
 Ni        31.4112724320       16.0820564366        8.0791675554
 Ni        29.9721344401       18.6729651465        8.0763170407
 Ni        30.1830583942       17.5158654171        5.2452515341
  O        10.6499937384       14.3651147766       13.4807109429
  O        12.6131744495       14.6575065683       14.5787746427
  O        49.1481642027       16.8458133013       15.9845841029
  O        50.3503362023       20.9357929684       13.6428815095
  O        48.3485877650       20.5933789313       14.6607493724
  O        11.0519037481       17.0537762523       14.4956360136
  O        50.3210639075       20.8816455921        2.4119820481
  O        48.3467795837       20.5868164291        1.3322640590
  O        49.5438898828       18.2484176175        2.0733248361
  O        12.3593302918       18.6247216809        0.0048048571
  O        48.6932929815       14.1485499562       14.7462122310
  O         8.2099334395       14.2103840898        1.3276234917
  O        10.7353049321       14.5067280586        2.6694648789
  O        12.5717810306       14.5828033664        1.3336427171
  O        22.8445331805        2.0425508355       13.4821278114
  O        21.6065730587        3.5928180087       14.5835499369
  O        42.0583618084       34.1376223079       15.9739151306
  O        37.9818124465       33.1381179705       13.5673442354
  O        39.2182693342       31.5763351757       14.6616900800
  O        20.3085359057        1.0398957087       14.4971574912
  O        38.0245673299       33.1855916480        2.4203463098
  O        39.2193839501       31.5839214839        1.3312535457
  O        40.6523266532       33.7695219650        2.0653356340
  O        18.2557453551        1.3768547803        0.0018917724
  O        44.6222252265       35.1005471591       14.7537006742
  O        24.2054222500        0.0000042803        1.3258721856
  O        22.7529857820        2.0572454671        2.5888704535
  O        21.6250564701        3.5965898255        1.3488876692
  O        27.4941827608       18.7489652667       13.4877465721
  O        26.7627784733       16.9303950357       14.6447623095
  O        30.6339431399       19.3563289344        0.0123758539
  O        33.5896754270       16.2727426152       13.6612675981
  O        34.2761892435       18.1667537885       14.7283610594
  O        29.5767375896       17.0538603545       14.5623179781
  O        33.6210778060       16.3326108026        2.4214516324
  O        34.3058913702       18.2470935736        1.4083632186
  O        31.6532095268       18.3289798368        2.0858700742
  O        30.3198924369       15.1554666390        0.0887711035
  O        28.5532222621       21.0297660610       14.8251693317
  O        28.5111341117       20.9550411687        1.4059086472
  O        27.4554292226       18.6781748962        2.6625106349
  O        26.6935775696       16.9257946843        1.4188482463
  O        13.1488814860       18.6927462102        2.5926196312
  O        13.9190441026       16.9161005165        1.4098632449
  O        50.5967370562       19.3503606890        0.0255567917
  O        47.6836050463       16.3270508536        2.4223523212
  O        46.9528847367       18.1762786315        1.3287230687
  O        11.0699875505       17.0154575007        1.4947055442
  O        47.6760587770       16.3355724138       13.6479825899
  O        46.9280009659       18.2359391490       14.6599789703
  O        49.5689763879       18.3177203101       13.9771784575
  O        10.3187449540       15.1000540675        0.0021658961
  O        52.6707973168       21.0278665150        1.2469292697
  O        12.1468640202       20.8912318982       14.6681609073
  O        13.1081189464       18.6136130469       13.3205205116
  O        13.9569620102       16.9869995743       14.6604559505
  O        29.9546389748       14.5118505042        2.7638929532
  O        28.0805602625       14.6532309045        1.4914933556
  O        32.1408091385       16.8484910358        0.0747047368
  O        30.9652043077       20.9511697628        2.4092112911
  O        32.9462087336       20.6007435760        1.3369203975
  O        29.5673887298       17.0722005016        1.5836527182
  O        30.8726127886       20.9457255378       13.6516808462
  O        32.8759864598       20.5881612808       14.6587876154
  O        31.6877385427       18.2484817239       13.9953788326
  O        28.2607624926       18.6334690519        0.0734279249
  O        32.4893341165       14.2142162483        1.3329284048
  O        32.4054903140       14.2149931164       14.8194418597
  O        29.9184539005       14.4369927729       13.4859148246
  O        28.0380529377       14.5880660776       14.7464734982
  O        17.8892910060        1.9667425527        2.6678998769
  O        18.9563582833        3.5272117259        1.4130510940
  O        39.1685795057       34.1389033137        0.0023115593
  O        43.2802498317       33.0589844177        2.3368332508
  O        42.0345814855       31.5064413745        1.2467479352
  O        20.3178227960        1.0369989884        1.4849848579
  O        43.2761095835       33.1825971061       13.5697640128
  O        42.0052794700       31.5841289860       14.5778670244
  O        40.5790398914       33.7751704709       13.9307915883
  O        22.3674974762        1.3848937882        0.0030242157
  O        36.6728343096       35.0998508693        1.2383643938
  O        16.4456785625        0.0644207353       14.6632183391
  O        17.9365432354        2.0434685593       13.3213050085
  O        18.9192271515        3.5931691463       14.6608153140
  O        29.9139784165       18.8305944051       12.0634667074
  O        29.7453204468       18.9700869055        4.0044111066
  O        31.3504315540       16.3406405998       12.0742824747
  O        31.4301130144       16.4897423961        4.0033379176
  O        32.4409737693       16.7720014561        9.5807351069
  O        29.8638275140       16.9986002357        9.1639663824
  O        29.5774933468       15.4604661865        5.7377126743
  O        31.3753679130       17.7318599483        6.9061488505
  O        30.8730710668       19.4846739930        9.5677333967
  O        28.8444143342       18.3257316414        6.5670437136
  O        39.4570046681       35.2441276586       11.9968443877
  O        19.1413673033        0.0045495159        3.9956119134
  O        41.9694826574       35.1725539106       12.0819940772
  O        21.6912804439       -0.0693760644        3.9011750351
  O        51.3650504270       18.6142783205       12.0002227068
  O        10.7510486636       18.7471631107        3.9100543330
  O        50.0792394508       16.4127398726       12.0866522706
  O         9.5243968247       16.4830822843        3.9963217385
 Zr         9.2978514227       16.0526220649       14.1774217352
 Zr        49.8372463062       16.0065219292        1.7513405481
 Zr        22.0735129333        0.0306090674       14.1837419780
 Zr        42.4611503807       35.1541404939        1.8062834125
 Zr        29.5975073332       19.0626078146       14.2122041605
 Zr        29.5660885707       19.1806745062        1.8258570305
 Zr        11.0389713156       19.0517656182        1.8329504346
 Zr        11.0449044550       19.1546938121       14.2456616232
 Zr        31.3626846799       16.1202050445        1.8556186596
 Zr        31.3848041782       16.0065349608       14.2429280191
 Zr        18.6015066494       -0.0005280966        1.7682847573
 Zr        18.5068283422       -0.0067946713       14.2087573328
 Zr        12.3030734395       16.3234953891       15.9852062312
 Zr        48.6180946013       18.8333724986        0.0151289165
 Zr        20.3161367710        2.4747007097       15.9853977941
 Zr        40.6440601091       32.6879493976       15.9731541100
 Zr        28.3423211686       16.3381206610        0.0794894821
 Zr        32.6159005604       18.8360140074        0.0364598840
  H        32.2605725043       18.1168557508        6.7938760356
  H        32.0642523064       15.0560407042        7.1665941283
  H        30.3779783980       15.1193178997        6.2170211988
