     573
 i =      149, E =     -4762.8217298158
  C        11.8587382000       14.0534831376       13.7364803128
  C        12.4562311358       12.8905247389       13.0182246016
  C        11.7046327546       12.1718106213       12.0763291806
  C        12.2810084875       11.1096245699       11.3839558743
  C        13.6214907407       10.7396261214       11.6119068198
  C        14.3545374701       11.4429494930       12.5856501548
  C        13.7816466924       12.5079002523       13.2771854383
  C        14.2610690701        9.6490232365       10.8384913585
  C        14.2564290456        9.6569954558        9.4167945711
  C        13.7432674029       10.7591149190        8.6628779960
  C        49.1268175612       21.2332656372       13.8745716882
  C        48.5501001735       22.4011658884       13.1474748639
  C        49.3001702204       23.0685653563       12.1665570704
  C        48.7332384755       24.1077074514       11.4333688960
  C        47.4026676963       24.5092969083       11.6619349511
  C        46.6716668838       23.8603312393       12.6753526406
  C        47.2341181270       22.8154296206       13.4046960826
  C        46.7724349080       25.5869925131       10.8646638621
  C        46.7615187480       25.5574347528        9.4429024889
  C        47.2614498811       24.4423328757        8.6994156985
  C        14.8604266848        8.5706950795        8.7035274443
  C        14.8918175626        8.5970463603       11.5151270531
  C        49.1132525127       21.2035391397        2.1504861319
  C        48.5279408326       22.3648757890        2.8776574232
  C        49.2671919638       23.0256469283        3.8705236205
  C        48.6908611546       24.0602051427        4.6019698524
  C        47.3604273815       24.4569414732        4.3637659460
  C        46.6399833470       23.8119816982        3.3402975412
  C        47.2135372785       22.7760685577        2.6085360442
  C        46.7219971326       25.5319136083        5.1547893610
  C        46.7337271332       25.5282560914        6.5764883672
  C        47.2491971333       24.4290537209        7.3328628356
  C        40.6349879721       17.1600348331        7.3323824693
  C        40.6545605859       17.1867637655        4.5235905916
  C        11.8829485986       14.0864840748        2.2905820640
  C        12.4722574841       12.9106689807        2.9947779854
  C        11.7148052098       12.1776044553        3.9210486195
  C        12.2813933871       11.0951608050        4.5894782325
  C        13.6201468436       10.7212884716        4.3574939175
  C        14.3580228673       11.4366714750        3.3964775109
  C        13.7925969492       12.5178280441        2.7237765550
  C        14.2537904742        9.6245956112        5.1279291121
  C        14.2525867616        9.6446305990        6.5497640770
  C        13.7427120990       10.7535818686        7.2968333336
  C        22.5109694811        3.2439291474       13.7479391520
  C        23.2239611475        4.3491890819       13.0474903278
  C        24.2204434453        4.0692753708       12.1008742581
  C        24.8457853658        5.1090187434       11.4178458819
  C        24.4899556459        6.4503669675       11.6615661840
  C        23.5215882096        6.7218566035       12.6451649266
  C        22.8916961399        5.6839441335       13.3266209486
  C        25.0947699915        7.5568758466       10.8860068599
  C        25.0693283863        7.5492128820        9.4645590388
  C        24.3680567546        6.5496070690        8.7180606747
  C        38.3016786257       31.9307297645       13.8450248150
  C        37.5690468665       30.8424492499       13.1374524487
  C        36.6065899974       31.1482439370       12.1631508782
  C        35.9859922725       30.1292509729       11.4462702358
  C        36.3137685758       28.7797829055       11.6818764262
  C        37.2463322532       28.4813513821       12.6930314214
  C        37.8707373063       29.4990964263       13.4091224336
  C        35.7092379035       27.6897857579       10.8844567271
  C        35.7381292831       27.7066742101        9.4631540594
  C        36.4438273335       28.7096086558        8.7265676428
  C        25.6934963495        8.6187714298        8.7451935112
  C        25.6895984590        8.6324306847       11.5574299602
  C        38.3289890647       31.9623448679        2.1620523192
  C        37.6072708979       30.8903954806        2.9055883179
  C        36.6768884307       31.2014398531        3.9090637508
  C        36.0647927569       30.1847701638        4.6394289334
  C        36.3688874402       28.8314601736        4.3901423830
  C        37.2777195088       28.5303667375        3.3571887588
  C        37.8917938034       29.5435717147        2.6279182114
  C        35.7575361583       27.7340872801        5.1742213895
  C        35.7627131106       27.7293987174        6.5963205639
  C        36.4551051872       28.7207871285        7.3600978672
  C        46.1357483142       26.6209054971        7.2866244551
  C        46.0879828662       26.5802338929        4.4787355425
  C        22.4607689770        3.2557117701        2.2623736305
  C        23.1546788095        4.3646015699        2.9847916036
  C        24.1580497104        4.0789378199        3.9242958270
  C        24.7857033336        5.1093964566        4.6199666383
  C        24.4300217186        6.4549426642        4.3986174529
  C        23.4498541769        6.7339088581        3.4274294117
  C        22.8176076889        5.7037054021        2.7321828765
  C        25.0599946561        7.5531022947        5.1731969828
  C        25.0520365214        7.5466849979        6.5958892516
  C        24.3578973325        6.5495934864        7.3514485807
  C        26.6139848680       17.8576106942       13.7804632352
  C        25.3086041852       17.9011220896       13.0539076794
  C        25.0396658065       18.9076336723       12.1125240706
  C        23.8280950662       18.9237330379       11.4240382880
  C        22.8472572235       17.9384417989       11.6572234657
  C        23.1114046038       16.9548494677       12.6291604181
  C        24.3257357236       16.9320194472       13.3137521463
  C        21.5744637665       17.9241774984       10.8921280263
  C        21.5760834167       17.9095561667        9.4696337231
  C        22.7827392196       17.7937140228        8.7096522771
  C        34.4438776413       17.1907824462       13.9226299552
  C        35.7397809869       17.1414680808       13.1853443683
  C        35.9351796708       16.1911728005       12.1710118792
  C        37.1130944302       16.1870755893       11.4295603570
  C        38.1273043492       17.1306268303       11.6843446028
  C        37.9353413495       18.0585280714       12.7258455558
  C        36.7540010458       18.0698088398       13.4634568749
  C        39.3796637205       17.1471114161       10.8959039676
  C        39.3760480168       17.1744006735        9.4743943860
  C        38.1703204684       17.3097599625        8.7166525049
  C        20.3299465590       17.9270249548        8.7603680206
  C        20.3496172028       17.9230638563       11.5740280058
  C        34.4783159447       17.2477605746        2.1879362262
  C        35.7801569297       17.1802174547        2.9126362577
  C        35.9929711541       16.2045499366        3.8978980549
  C        37.1773312610       16.1939117668        4.6289904930
  C        38.1772149436       17.1570971889        4.3922820402
  C        37.9704636769       18.1078725049        3.3757284815
  C        36.7833318094       18.1246765333        2.6486872678
  C        39.4235078719       17.1789642142        5.1879392115
  C        39.3987335194       17.1908888170        6.6087275472
  C        38.1813106901       17.3154964147        7.3499139189
  C        35.1295438279       26.6513081191        7.2998494757
  C        35.1692472946       26.6627008155        4.4906903469
  C        26.5725576554       17.8281195049        2.3279683011
  C        25.2563098730       17.8729227051        3.0332204552
  C        24.9877719334       18.8847827463        3.9673916107
  C        23.7706359978       18.9099011488        4.6427182230
  C        22.7923668503       17.9235697367        4.4061091361
  C        23.0547039264       16.9366904798        3.4388080009
  C        24.2730093124       16.9091894972        2.7624298041
  C        21.5287649576       17.9057203163        5.1795137843
  C        21.5523556468       17.8983575606        6.6010072492
  C        22.7711114181       17.7880475840        7.3433106137
  C        14.0466165882       17.8289797716        2.2935898646
  C        15.3513536461       17.8861768558        3.0183328353
  C        15.6085287927       18.8895269232        3.9655976043
  C        16.8177039835       18.9100124517        4.6581603356
  C        17.8037924449       17.9300481974        4.4253278865
  C        17.5515398108       16.9511143371        3.4457080414
  C        16.3417711815       16.9259896394        2.7548747396
  C        19.0727172870       17.9124938383        5.1944049146
  C        19.0709201552       17.9087592978        6.6168036567
  C        17.8635595811       17.8083800676        7.3773488069
  C        46.8062558906       17.2207322452        2.1654691708
  C        45.5186978617       17.1659966111        2.9147719798
  C        45.3119500102       16.1944607705        3.9061386571
  C        44.1322537495       16.1855379024        4.6455702780
  C        43.1301939035       17.1481663627        4.4148085701
  C        43.3344411417       18.0993902148        3.3971505236
  C        44.5147007647       18.1124182440        2.6590174483
  C        41.8778282855       17.1678916526        5.2034649020
  C        41.8824843759       17.1681392285        6.6251007586
  C        43.0912000121       17.2571195590        7.3847056131
  C        20.3174020638       17.9205093871        7.3255414811
  C        20.2970766729       17.8929911603        4.5125116341
  C        46.7863284692       17.2304628236       13.8861374713
  C        45.4822177711       17.1251836952       13.1743938458
  C        45.2631729008       16.1312729060       12.2088385337
  C        44.0748014421       16.1093351460       11.4834426196
  C        43.0775512767       17.0779498521       11.7079473782
  C        43.2859125208       18.0396516243       12.7138698014
  C        44.4754690341       18.0684245112       13.4338147874
  C        41.8330906459       17.1093290735       10.9102228595
  C        41.8598418961       17.1364008433        9.4899683365
  C        43.0803940430       17.2396541984        8.7510269558
  C        46.1534628678       26.6373028171        8.7211721256
  C        46.1624529314       26.6560772154       11.5308177967
  C        14.0448257664       17.8303640934       13.7029167807
  C        15.3651040071       17.9013414939       13.0106469300
  C        15.6409686722       18.9171445545       12.0833090151
  C        16.8698274667       18.9516070675       11.4280814465
  C        17.8501419767       17.9693284431       11.6744351833
  C        17.5808546542       16.9818253300       12.6393624849
  C        16.3541130095       16.9469615679       13.2982177118
  C        19.1176793297       17.9435819342       10.9061799127
  C        19.0945300588       17.9233922775        9.4846823890
  C        17.8750293723       17.8148589524        8.7433606363
  C        28.8082331574       14.0918983291        2.3967040286
  C        28.1937296736       12.9189058537        3.0835485514
  C        28.9147552149       12.1816137710        4.0342868209
  C        28.3155658127       11.1061847994        4.6848244839
  C        26.9809495699       10.7454787518        4.4100969662
  C        26.2817833189       11.4634340661        3.4232228394
  C        26.8790667018       12.5384136104        2.7699545832
  C        26.3118520091        9.6659424382        5.1712017463
  C        26.2998626318        9.6917193723        6.5923760237
  C        26.8056918358       10.8031793539        7.3387418985
  C        32.1792722025       21.2449661824        2.1489887390
  C        32.7729462842       22.4118861701        2.8666194225
  C        32.0216112252       23.0903429525        3.8386590850
  C        32.5897527452       24.1297469389        4.5686130608
  C        33.9250170846       24.5187250256        4.3475112564
  C        34.6590001853       23.8589861686        3.3437021223
  C        34.0931824981       22.8139836586        2.6155200158
  C        34.5511170176       25.5944355009        5.1495904376
  C        34.5376568128       25.5678227114        6.5714258753
  C        34.0239967655       24.4548952415        7.3095584117
  C        25.6891701055        8.6140352118        7.3106468976
  C        25.6751336876        8.6155116240        4.4974632014
  C        32.1016144896       21.2304654096       13.8829169683
  C        32.6883288254       22.3869987602       13.1446789690
  C        31.9489454905       23.0469815940       12.1507211356
  C        32.5265039105       24.0758212370       11.4104644910
  C        33.8565379377       24.4751460087       11.6469884862
  C        34.5780740609       23.8292462459       12.6693347320
  C        34.0058297222       22.7942752208       13.4043407174
  C        34.4944896236       25.5562422013       10.8607510007
  C        34.5075179738       25.5487442021        9.4386854472
  C        34.0084805459       24.4461016420        8.6762404857
  C        40.6229903404       17.1475941234        8.7662967532
  C        40.6027906760       17.1317019912       11.5752849419
  C        28.7351749287       14.0637067065       13.8170363412
  C        28.1232211951       12.9205176351       13.0771043052
  C        28.8624494413       12.2152450934       12.1151069504
  C        28.2803378903       11.1612526351       11.4152129643
  C        26.9435027832       10.7846733064       11.6538042381
  C        26.2210218216       11.4767235348       12.6438310240
  C        26.8010708463       12.5324394458       13.3444473835
  C        26.3028226656        9.6941619312       10.8803751529
  C        26.2973341075        9.7058882859        9.4586496313
  C        26.8030249452       10.8110465477        8.7045973681
  C        18.1354164556        3.1809712317        2.3223077581
  C        17.4060936487        4.2782445471        3.0209107135
  C        16.3903518873        3.9998960922        3.9483913938
  C        15.7426247878        5.0398982789        4.6118596856
  C        16.0946190309        6.3835981403        4.3722306624
  C        17.0840487754        6.6531028384        3.4085204355
  C        17.7331410933        5.6157470724        2.7434919303
  C        15.4702936662        7.4913130931        5.1352470297
  C        15.4856440506        7.4906782800        6.5569539351
  C        16.1872511458        6.4970919789        7.3101118506
  C        42.9458868938       31.8595333343        2.0779888690
  C        43.6462814246       30.7718782412        2.8219645180
  C        44.5918797629       31.0932241037        3.8079606937
  C        45.1976063913       30.0876954324        4.5556321823
  C        44.8711487655       28.7346306024        4.3408323190
  C        43.9452635623       28.4202598699        3.3276858262
  C        43.3364288538       29.4253889924        2.5796386889
  C        45.4887858125       27.6553569481        5.1440154900
  C        45.4929750453       27.6809949283        6.5657087220
  C        44.8058884879       28.6890380412        7.3123370586
  C        14.8566533563        8.5631567787        7.2693098000
  C        14.8749599664        8.5630340760        4.4566410867
  C        42.9464564846       31.9615626303       13.8038996359
  C        43.6916897295       30.8854374974       13.0903976113
  C        44.6563894440       31.1913613554       12.1182086869
  C        45.2779388106       30.1717705666       11.4005107042
  C        44.9540794555       28.8214555116       11.6380367662
  C        44.0204891732       28.5237854010       12.6487092671
  C        43.3921950626       29.5405420601       13.3608750690
  C        45.5631418452       27.7240721524       10.8527825269
  C        45.5334983201       27.7174470855        9.4314840946
  C        44.8271408978       28.7076468791        8.6785224846
  C        35.1156589658       26.6406244932        8.7347211386
  C        35.1065807969       26.6133958014       11.5446278589
  C        18.1485727751        3.2469964834       13.7014947074
  C        17.4299840094        4.3438692060       12.9922051777
  C        16.4147681845        4.0526132900       12.0686516308
  C        15.7664727843        5.0832521300       11.3932512350
  C        16.1212125273        6.4284623345       11.6159564657
  C        17.1126301785        6.7118453969       12.5731656887
  C        17.7602770882        5.6829168574       13.2529303068
  C        15.4907245079        7.5241721913       10.8435294724
  C        15.4966702786        7.5075988856        9.4223987427
  C        16.1934803976        6.5059219541        8.6757134507
  H        10.6725678749       12.4660817942       11.8991648480
  H        11.6947824524       10.5512740442       10.6572657423
  H        15.3914783377       11.1681468212       12.7675864558
  H        14.3510010990       13.0709230747       14.0128585683
  H        13.3762178473       11.6312243920        9.1961828480
  H        50.3229012770       22.7485795921       11.9818594055
  H        49.3197375694       24.6230418101       10.6758483840
  H        45.6421371077       24.1610245933       12.8584408408
  H        46.6630406145       22.2901221790       14.1666903459
  H        47.6299405024       23.5759275203        9.2410906608
  H        14.8720840225        8.5882321670       12.6034328452
  H        50.2872588065       22.7028397008        4.0653905783
  H        49.2692608114       24.5757049086        5.3654372459
  H        45.6105618776       24.1091913636        3.1512795330
  H        46.6526683993       22.2538823759        1.8370260044
  H        47.6079201751       23.5519098210        6.8019683424
  H        40.6608357754       17.1513745673        3.4358836165
  H        48.6870068697       14.0948859576       15.7948765161
  H        10.6813722278       12.4667592985        4.0985436187
  H        11.6896391640       10.5248350297        5.3022602817
  H        15.3933929714       11.1586507339        3.2104053724
  H        14.3648727209       13.0870862581        1.9951119655
  H        13.3758494502       11.6221785969        6.7581939184
  H        47.9301554438       14.2181175438        1.7160825682
  H        47.7801012128       14.3734808190       14.4899866559
  H        49.0842003676       18.5527446041        2.8727228753
  H        10.4160579447       14.1342775932        0.0038490173
  H        24.4823654224        3.0307899768       11.9108725785
  H        25.6189366202        4.8923610288       10.6838827034
  H        23.2398288486        7.7546800132       12.8392870165
  H        22.1217537035        5.8834901422       14.0678827803
  H        23.8064405514        5.7928574009        9.2579922184
  H        36.3699984966       32.1918760602       11.9699364472
  H        35.2392917375       30.3692422496       10.6925423318
  H        37.5064256887       27.4418208151       12.8816057319
  H        38.6164909097       29.2771995272       14.1687764691
  H        37.0086492625       29.4592427829        9.2730265438
  H        25.7221332644        8.6161902028       12.6453308709
  H        36.4539850270       32.2461411564        4.1137575493
  H        35.3374948394       30.4316230404        5.4096994740
  H        37.5247040642       27.4896304676        3.1581613957
  H        38.6155015146       29.3159201580        1.8490755027
  H        37.0297561504       29.4785730004        6.8353504133
  H        46.1093309356       26.5876198670        3.3906993138
  H        44.6682507928       35.1161701305       15.8088243891
  H        24.4366378382        3.0408471436        4.0908904078
  H        25.5673538409        4.8811534031        5.3414251381
  H        23.1638854016        7.7682652502        3.2476358530
  H        22.0449724037        5.9159892656        1.9968262134
  H        23.7879717280        5.7933184549        6.8195119100
  H        44.9536802027       34.3902283347        1.7001970344
  H        44.9016001935       34.2067040860       14.4855513153
  H        40.6658608212       33.2090138126        2.8582423565
  H        23.1503733450        1.9578146762        0.0103191961
  H        25.7886755586       19.6767016297       11.9374476702
  H        23.6251029025       19.7101464103       10.7001550696
  H        22.3656390997       16.1853693414       12.8183261338
  H        24.5404489547       16.1591296862       14.0481737699
  H        23.7237720674       17.6781957749        9.2395684702
  H        35.1445023907       15.4713669440       11.9722775819
  H        37.2641949160       15.4439341124       10.6497007226
  H        38.7112907989       18.7942523884       12.9269833356
  H        36.5874701791       18.8028638494       14.2494179222
  H        37.2317428039       17.4393528268        9.2480163940
  H        20.3556971440       17.9587905459       12.6620427731
  H        35.2106533514       15.4727223643        4.0855857813
  H        37.3430532400       15.4348569869        5.3903791218
  H        38.7367458120       18.8575719842        3.1896939678
  H        36.6005116675       18.8764391678        1.8845103583
  H        37.2510868271       17.4480784365        6.8049718427
  H        35.1456372061       26.6868737994        3.4028620649
  H        28.5095698503       21.0864908876       15.9695115019
  H        25.7457359449       19.6445884494        4.1445125840
  H        23.5618576201       19.6986903215        5.3622972005
  H        22.3073786486       16.1685463700        3.2505332163
  H        24.4920075237       16.1355555032        2.0302970806
  H        23.7030500353       17.6680482339        6.7989165266
  H        29.0036825974       21.7214934875        1.7667052909
  H        29.1479755196       21.7486996624       14.6064035977
  H        32.0992596407       18.5805379994        2.9796081384
  H        27.4030117511       19.0764830940        0.0874755851
  H        14.8503039528       19.6487635133        4.1439168087
  H        17.0134584750       19.6941819602        5.3863769496
  H        18.3025511003       16.1867126000        3.2569414263
  H        16.1352383044       16.1568780349        2.0144181587
  H        16.9213892223       17.6931611156        6.8493947164
  H        46.0925885954       15.4600242528        4.0900670192
  H        43.9715689635       15.4243310272        5.4058187426
  H        42.5685758453       18.8505170063        3.2153650916
  H        44.6895103133       18.8610729085        1.8899357062
  H        44.0335239077       17.3704306799        6.8563610195
  H        20.2914388697       17.9218056924        3.4243545296
  H        46.0400569000       15.3919831211       12.0277337014
  H        43.9066067059       15.3395809623       10.7334150679
  H        42.5194632773       18.7907226492       12.8931914189
  H        44.6598391238       18.8305050548       14.1869242074
  H        44.0145209104       17.3383313962        9.2963395324
  H        46.1991999850       26.6825839469       12.6182658237
  H        52.7411611505       21.0626290921        0.1998119203
  H        14.8826609689       19.6734633698       11.8929298916
  H        17.0832425852       19.7424227413       10.7121369355
  H        18.3289995002       16.2168564555       12.8368727290
  H        16.1307042994       16.1720721958       14.0274679740
  H        16.9414966505       17.7046816583        9.2869198470
  H        52.3223308581       21.6732357166       14.2892123909
  H        52.0131376375       21.7019878958        1.5007612004
  H        49.0675021534       18.6078893865       13.1991927971
  H        13.2475574307       19.0162385652       15.9719987212
  H        29.9418783840       12.4670288960        4.2498857068
  H        28.8763150297       10.5328608775        5.4198339815
  H        25.2505700124       11.1944671852        3.2037567867
  H        26.3373609089       13.1139897675        2.0233777001
  H        27.1714220525       11.6713988133        6.7989464773
  H        30.9961385722       22.7765419631        4.0178466407
  H        32.0019617084       24.6547313394        5.3184202173
  H        35.6925756763       24.1500537966        3.1677213849
  H        34.6656739153       22.2788598003        1.8613309597
  H        33.6663527262       23.5867117436        6.7633958924
  H        25.7049798446        8.5966718948        3.4094471587
  H        30.9243346853       22.7322284802       11.9655089590
  H        31.9471291205       24.5881876244       10.6454788408
  H        35.6076876901       24.1267669194       12.8570287371
  H        34.5689169515       22.2722278552       14.1745058289
  H        33.6394490130       23.5706633383        9.2031537518
  H        40.5957058232       17.0822933139       12.6624490296
  H        32.5224410335       14.1406782180        0.2686614162
  H        29.8959717083       12.5022994946       11.9355931489
  H        28.8609288334       10.6106451809       10.6782133732
  H        25.1867446166       11.1978816684       12.8347652102
  H        26.2405782845       13.0823043510       14.0968723598
  H        27.1655964469       11.6853692148        9.2373615551
  H        33.2951663764       14.1850939674       14.4263911378
  H        33.4099643543       14.4013114925        1.6186402559
  H        32.2987466513       18.6200614492       13.2641059247
  H        30.2203035273       14.1876905903        0.0869154311
  H        16.1182416296        2.9633936250        4.1347346180
  H        14.9531239933        4.8205418890        5.3274702021
  H        17.3665456035        7.6859695468        3.2154648574
  H        18.5152046080        5.8183466962        2.0156595172
  H        16.7538105880        5.7397627829        6.7766006571
  H        44.8281702447       32.1403114066        3.9821012773
  H        45.9375098725       30.3414584741        5.3115359932
  H        43.6825079972       27.3781939950        3.1576379009
  H        42.5997574699       29.1900308120        1.8150321362
  H        44.2305060725       29.4367804120        6.7740284161
  H        14.8511396510        8.5462033481        3.3684228516
  H        44.8999880261       32.2340442158       11.9268412278
  H        46.0249152415       30.4130061580       10.6473470754
  H        43.7634420477       27.4840612962       12.8401832672
  H        42.6456247122       29.3177222088       14.1192439992
  H        44.2686131398       29.4705130033        9.2131147682
  H        35.0667791747       26.6241646597       12.6322044860
  H        36.6051243528       35.1341292819        0.1856980812
  H        16.1436458167        3.0130372664       11.8989786226
  H        14.9741174795        4.8564328885       10.6831910837
  H        17.3961913756        7.7473055587       12.7500048004
  H        18.5431874965        5.8933149034       13.9776720782
  H        16.7649094243        5.7556919189        9.2141687361
  H        36.2786291459       34.4825449215       14.2681945917
  H        36.3808382908       34.2091901145        1.5047093255
  H        40.5800121050       33.2024246651       13.1486279478
  H        17.4706275620        1.9473159166       15.9691165920
  H        29.1979897674       19.5062021100        4.5400166830
  H        28.7295715620       18.9053455278       11.7987868978
  H        30.7350127997       15.3895454353       11.8435697634
  H        31.0590998951       15.5822444169        4.4671820136
  H        28.2105914119       18.4474256657        6.7656004154
  H        29.1012567503       15.5514112589        6.2781440020
  H        30.8860004392       19.7932437901       10.1196185061
  H        28.9879787765       16.6541193410        9.7418670480
  H        18.8540385707        0.8691857191        4.3405065132
  H        40.5280008742       35.2290583822       11.9469625894
  H        42.3239180855       34.4187972753       11.5854315218
  H        22.0879439401        0.6923947973        4.3565276722
  H        11.5969091482       18.7132400686        4.3877616148
  H        52.2648573887       18.4312014627       11.6720155438
  H        49.2551776628       16.4771672075       11.5795245655
  H        10.1509240423       15.7980883165        4.2974414905
  H        50.8500320019       17.6923878497       11.9491840929
  H        10.0464768073       17.3944655715        4.0570746628
  H        20.2154220011        0.0024393746        4.0470209726
  H        39.1837028288       36.1244351209       11.6811502773
 Ni        30.7702211635       17.6296831728       11.1546875304
 Ni        30.6506401300       16.5178910785        7.9991117554
 Ni        30.1400574043       18.8642885697        8.0804815637
 Ni        30.3065191680       17.5993296472        5.2474416783
  O        10.6499738718       14.3650891990       13.4807202989
  O        12.6131955376       14.6575113737       14.5787889261
  O        49.1481613687       16.8459096081       15.9846687956
  O        50.3503028852       20.9358866617       13.6430101930
  O        48.3485798013       20.5933714947       14.6608249621
  O        11.0518155171       17.0538888208       14.4955562746
  O        50.3210919212       20.8816818849        2.4119329133
  O        48.3467980143       20.5868314166        1.3322803805
  O        49.5437270933       18.2484242618        2.0734563620
  O        12.3590457273       18.6246181504        0.0048083069
  O        48.6932846417       14.1485020696       14.7462037789
  O         8.2098431740       14.2104148190        1.3276919416
  O        10.7353766909       14.5067292701        2.6694178531
  O        12.5718358147       14.5828014054        1.3336026988
  O        22.8444150747        2.0429737593       13.4821929665
  O        21.6051275171        3.5920367564       14.5849667771
  O        42.0582084592       34.1373249325       15.9739218786
  O        37.9817245219       33.1391578429       13.5677601682
  O        39.2180084043       31.5765145216       14.6614285615
  O        20.3084582901        1.0397022406       14.4969556675
  O        38.0249251772       33.1863091972        2.4201517843
  O        39.2189128864       31.5836255008        1.3318427893
  O        40.6523279793       33.7693449885        2.0653762060
  O        18.2553774984        1.3762356780        0.0019103760
  O        44.6222482209       35.1005222857       14.7536352230
  O        24.2054292100        0.0000023988        1.3259063481
  O        22.7529864672        2.0577827748        2.5888989282
  O        21.6243083509        3.5959603160        1.3475399591
  O        27.4913363704       18.7515075490       13.4904709469
  O        26.7623695325       16.9349740202       14.6496530972
  O        30.6724042233       19.4034935698        0.0641458099
  O        33.5903117753       16.2765582969       13.6654667528
  O        34.2713722572       18.1719288454       14.7305305057
  O        29.5801002313       17.0695888023       14.5737011574
  O        33.6215873023       16.3303176044        2.4167847775
  O        34.3060501260       18.2484839291        1.4116515912
  O        31.6575942840       18.3147825634        2.1564856336
  O        30.3238807948       15.1533823387        0.0935424419
  O        28.5529904109       21.0340657055       14.8973214295
  O        28.5135378305       20.9584131468        1.4156796601
  O        27.4575754396       18.6792032020        2.6635129703
  O        26.6951221048       16.9287907359        1.4164802855
  O        13.1488305985       18.6929626737        2.5925426024
  O        13.9193856707       16.9162027194        1.4100739926
  O        50.5963757440       19.3503366048        0.0256711468
  O        47.6830988315       16.3272146151        2.4225516756
  O        46.9523351720       18.1760746013        1.3293114142
  O        11.0697411042       17.0155729888        1.4947812876
  O        47.6766532045       16.3353265261       13.6481774873
  O        46.9288326629       18.2356687200       14.6604000796
  O        49.5688904119       18.3177267974       13.9772015663
  O        10.3186245968       15.1001228459        0.0022053261
  O        52.6707763473       21.0278972069        1.2469379352
  O        12.1468619823       20.8911834307       14.6680887728
  O        13.1083374045       18.6135617215       13.3204659837
  O        13.9570020576       16.9868212777       14.6604863874
  O        29.9924625371       14.4411173142        2.7362321290
  O        28.0896215133       14.6542636613        1.4990314562
  O        32.1419634578       16.8636348202        0.0871012194
  O        30.9662126460       20.9554004364        2.4115099353
  O        32.9481880151       20.6028861102        1.3456739718
  O        29.5687201640       17.0764051486        1.5803205207
  O        30.8738612737       20.9446237764       13.6580118595
  O        32.8795180149       20.5821506941       14.6601226222
  O        31.6767387625       18.2514741944       13.9111832456
  O        28.2886595312       18.6784038302        0.0776664281
  O        32.4950032367       14.2126013961        1.3386585418
  O        32.4081896863       14.2064226681       14.8228170292
  O        29.9114599778       14.4327524268       13.4880125989
  O        28.0363532814       14.5894348681       14.7503817520
  O        17.8891969775        1.9666610323        2.6679587777
  O        18.9561859437        3.5271869342        1.4131152560
  O        39.1686744669       34.1388839489        0.0023373567
  O        43.2802432165       33.0589687410        2.3367940149
  O        42.0345443343       31.5064680467        1.2467178777
  O        20.3176858181        1.0367062706        1.4853386272
  O        43.2760921527       33.1825484224       13.5697886588
  O        42.0052680452       31.5840967218       14.5778897013
  O        40.5790675379       33.7750085086       13.9308206466
  O        22.3673009211        1.3845408156        0.0030492649
  O        36.6727279509       35.0998199969        1.2383805522
  O        16.4454902395        0.0644402033       14.6632666086
  O        17.9364871518        2.0434154485       13.3212623327
  O        18.9189811633        3.5931641564       14.6608261841
  O        29.6603478541       18.9736261307       12.0779321107
  O        29.8202647464       18.9933058504        3.9895796700
  O        31.3135054270       16.1136658958       12.1549454216
  O        31.3160602400       16.4016887456        3.9964614073
  O        29.9045822491       16.3365052078        9.8214314897
  O        30.0305723251       15.8332962086        6.2607174031
  O        31.5175294496       17.9503606113        6.9065868742
  O        31.1792797542       18.9795402040        9.6672286737
  O        29.1048982941       18.7626919020        6.5574871102
  O        39.4568272904       35.2438665632       11.9968509424
  O        19.1419786450        0.0048055016        3.9956251800
  O        41.9695994108       35.1727091203       12.0820498546
  O        21.6915115117       -0.0691300616        3.9010822143
  O        51.3651117590       18.6142857952       12.0003330462
  O        10.7511957025       18.7472181685        3.9100612991
  O        50.0797087462       16.4128139959       12.0866055165
  O         9.5249179179       16.4829945342        3.9963324752
 Zr         9.2970597788       16.0527173618       14.1773833188
 Zr        49.8361972991       16.0066840857        1.7515144654
 Zr        22.0732312155        0.0297881901       14.1839452307
 Zr        42.4609498484       35.1534970034        1.8060334406
 Zr        29.6008138517       19.1076923760       14.2843900330
 Zr        29.5826184301       19.1766349183        1.8646618494
 Zr        11.0380471105       19.0519782495        1.8328540337
 Zr        11.0438650063       19.1548734048       14.2459648245
 Zr        31.3559298032       16.1016106361        1.8947965876
 Zr        31.4085484677       15.9982957686       14.3129635755
 Zr        18.6011100860       -0.0013846677        1.7685584107
 Zr        18.5064974478       -0.0074939295       14.2086785334
 Zr        12.3018639637       16.3234843409       15.9853408146
 Zr        48.6168335121       18.8333061506        0.0154675128
 Zr        20.3150720860        2.4733277013       15.9855886650
 Zr        40.6433414114       32.6871029844       15.9732158541
 Zr        28.3517318154       16.3450436541        0.0904826534
 Zr        32.6347990511       18.8400263834        0.0727467735
  H        32.4740354865       18.1142800116        6.9338244882
  H        28.9886643226       19.2393400889        8.8670333702
  H        31.9600976978       15.0893386053        7.8355842884
  H        31.7207616641       14.9716224795        8.5594579915
