     573
 i =      220, E =     -4762.8138304620
  C        11.8587495847       14.0535124834       13.7364523235
  C        12.4562581777       12.8905600059       13.0181959510
  C        11.7046569559       12.1718138004       12.0763285283
  C        12.2810502419       11.1096312031       11.3839662485
  C        13.6215484526       10.7396835171       11.6118989832
  C        14.3546159616       11.4430765620       12.5855714593
  C        13.7817148606       12.5080347894       13.2770870229
  C        14.2611283820        9.6490816683       10.8384826319
  C        14.2564734815        9.6570242053        9.4167859595
  C        13.7433919318       10.7591899073        8.6628815019
  C        49.1268122952       21.2332599164       13.8745414809
  C        48.5500962438       22.4011786940       13.1474579362
  C        49.3001654574       23.0685563120       12.1665249537
  C        48.7332351831       24.1077103949       11.4333527179
  C        47.4026729303       24.5093126552       11.6619395794
  C        46.6716756646       23.8603622388       12.6753692269
  C        47.2341174115       22.8154432028       13.4047001888
  C        46.7724350614       25.5870088881       10.8646722352
  C        46.7614767100       25.5574165239        9.4429131588
  C        47.2613986967       24.4423203467        8.6994157233
  C        14.8605161549        8.5707445999        8.7035254091
  C        14.8918425494        8.5970897537       11.5151217464
  C        49.1132320778       21.2035190305        2.1504677737
  C        48.5278993351       22.3648326869        2.8776647247
  C        49.2671382330       23.0255770586        3.8705570947
  C        48.6908054676       24.0601329715        4.6020045311
  C        47.3603898390       24.4569015013        4.3637596307
  C        46.6399566888       23.8119679164        3.3402683567
  C        47.2135155954       22.7760597837        2.6085049393
  C        46.7219657183       25.5318724642        5.1547880831
  C        46.7336934304       25.5282291529        6.5764887677
  C        47.2491201652       24.4290068721        7.3328643390
  C        40.6352318630       17.1541765160        7.3312469864
  C        40.6561175182       17.1821470480        4.5224617006
  C        11.8829694085       14.0865061067        2.2905635619
  C        12.4722923456       12.9107063873        2.9947805228
  C        11.7148411824       12.1776406035        3.9210467104
  C        12.2814277182       11.0951988378        4.5894766573
  C        13.6201907599       10.7213484335        4.3575158443
  C        14.3580516827       11.4366949856        3.3964604972
  C        13.7926221743       12.5178518701        2.7237608345
  C        14.2538007040        9.6246226034        5.1279298325
  C        14.2526576621        9.6446999377        6.5497633781
  C        13.7427970961       10.7536552022        7.2968371507
  C        22.5105628488        3.2438353833       13.7479341635
  C        23.2226039835        4.3494367816       13.0472906674
  C        24.2196966936        4.0703760397       12.1011136474
  C        24.8438068046        5.1107318705       11.4179216101
  C        24.4859820456        6.4516104721       11.6611531246
  C        23.5171280732        6.7222717002       12.6444434967
  C        22.8885128319        5.6837974087       13.3260727724
  C        25.0892357297        7.5587430377       10.8854968518
  C        25.0640699472        7.5507427954        9.4641019718
  C        24.3645965430        6.5499294691        8.7175364624
  C        38.3020149433       31.9308159593       13.8447996897
  C        37.5702437435       30.8425580649       13.1365531595
  C        36.6069128765       31.1483146171       12.1631329316
  C        35.9869829920       30.1292964558       11.4457654582
  C        36.3164364362       28.7800173165       11.6800355795
  C        37.2500842982       28.4816061560       12.6901607827
  C        37.8736953598       29.4993361339       13.4068667003
  C        35.7122274950       27.6900693114       10.8825344777
  C        35.7389375493       27.7082604522        9.4612749555
  C        36.4427285802       28.7123466506        8.7244326927
  C        25.6867294061        8.6211477665        8.7448003214
  C        25.6826081755        8.6350684464       11.5569230461
  C        38.3286444608       31.9627666639        2.1614484753
  C        37.6055005489       30.8915393032        2.9041641804
  C        36.6748766544       31.2038327791        3.9070061402
  C        36.0615272335       30.1879382756        4.6372314215
  C        36.3647574456       28.8344585021        4.3882075745
  C        37.2735611616       28.5321311807        3.3556429706
  C        37.8888993278       29.5445515052        2.6264749151
  C        35.7531076510       27.7377317228        5.1725653700
  C        35.7597668679       27.7327223299        6.5945700490
  C        36.4523564382       28.7242735947        7.3579712654
  C        46.1356948799       26.6208738897        7.2866154730
  C        46.0879610137       26.5801942050        4.4787254613
  C        22.4606626914        3.2555026584        2.2621667363
  C        23.1545561294        4.3643646874        2.9843819183
  C        24.1577823288        4.0787452163        3.9240209574
  C        24.7851753144        5.1092861594        4.6197396860
  C        24.4291794502        6.4546684485        4.3981683321
  C        23.4493592202        6.7336318779        3.4266820300
  C        22.8173936828        5.7033483310        2.7314128455
  C        25.0582258345        7.5530916487        5.1728910731
  C        25.0486551702        7.5472862315        6.5955220032
  C        24.3552381739        6.5495491113        7.3509200039
  C        26.6212377972       17.8609482138       13.7742552267
  C        25.3155905723       17.9046928771       13.0465348312
  C        25.0476402062       18.9085421017       12.1022090726
  C        23.8343694540       18.9258711277       11.4163976180
  C        22.8511824946       17.9440206195       11.6546594357
  C        23.1148307779       16.9627826127       12.6289780167
  C        24.3304326671       16.9391854887       13.3111575513
  C        21.5771270263       17.9290083806       10.8915005184
  C        21.5773244990       17.9097283420        9.4690920652
  C        22.7832481408       17.7905548517        8.7083606940
  C        34.4400562713       17.1924901139       13.9188024044
  C        35.7338657561       17.1447369436       13.1767373878
  C        35.9334143706       16.1882473873       12.1692195278
  C        37.1127046753       16.1819110198       11.4297536492
  C        38.1243053968       17.1294052875       11.6800998078
  C        37.9279444708       18.0644943736       12.7140934899
  C        36.7452171190       18.0777751229       13.4494082629
  C        39.3781501288       17.1435105328       10.8938415500
  C        39.3754026692       17.1686302272        9.4724345696
  C        38.1697577083       17.3014636203        8.7140957987
  C        20.3306225348       17.9263636941        8.7608937442
  C        20.3527086466       17.9301481491       11.5744340156
  C        34.4784303874       17.2466105785        2.1884213352
  C        35.7812136324       17.1767060779        2.9113642350
  C        35.9941148991       16.1998387577        3.8953948773
  C        37.1789047171       16.1876073727        4.6256915713
  C        38.1789437653       17.1508188977        4.3898009530
  C        37.9724902537       18.1022842404        3.3738479202
  C        36.7850526778       18.1203853687        2.6473456644
  C        39.4247678356       17.1726327720        5.1860938007
  C        39.3992945097       17.1838571896        6.6068861297
  C        38.1812925879       17.3066111962        7.3474039575
  C        35.1279148365       26.6540092916        7.2982306273
  C        35.1641235468       26.6667721784        4.4891400621
  C        26.5710792617       17.8284378875        2.3285157626
  C        25.2542575370       17.8740742127        3.0324237844
  C        24.9842258395       18.8863103148        3.9657318195
  C        23.7671453652       18.9101426896        4.6412321359
  C        22.7902119963       17.9223373690        4.4052313326
  C        23.0535877680       16.9355113624        3.4382095012
  C        24.2719591880       16.9091795004        2.7619632527
  C        21.5270146845       17.9031542591        5.1792582438
  C        21.5514890041       17.8951447464        6.6006747957
  C        22.7706406557       17.7835673271        7.3420730678
  C        14.0461955607       17.8285964873        2.2938987334
  C        15.3503581964       17.8848524957        3.0194847723
  C        15.6071692117       18.8874177152        3.9676451542
  C        16.8160530678       18.9072030604        4.6606588566
  C        17.8020361745       17.9272833142        4.4273353292
  C        17.5499793757       16.9489202503        3.4471191442
  C        16.3405153463       16.9244802052        2.7558382110
  C        19.0711245378       17.9096108754        5.1959098532
  C        19.0701624744       17.9060177580        6.6182815107
  C        17.8633629793       17.8059738766        7.3797720878
  C        46.8066170214       17.2206188809        2.1653779649
  C        45.5193623940       17.1654558823        2.9148003357
  C        45.3131176008       16.1930260293        3.9053584505
  C        44.1335709973       16.1831779158        4.6448639154
  C        43.1314172409       17.1458041886        4.4148533255
  C        43.3352871377       18.0981939870        3.3982587132
  C        44.5154000721       18.1121019569        2.6599932251
  C        41.8789214887       17.1639740567        5.2030524666
  C        41.8830327139       17.1634564172        6.6246408411
  C        43.0913502342       17.2529801981        7.3848372410
  C        20.3170859544       17.9179828269        7.3261187673
  C        20.2949660363       17.8904983879        4.5130805335
  C        46.7858784743       17.2303747730       13.8860437826
  C        45.4814622850       17.1245896955       13.1744750681
  C        45.2622144342       16.1300907453       12.2095094973
  C        44.0736615172       16.1074075916       11.4843355064
  C        43.0760778710       17.0759137774       11.7081984037
  C        43.2845824132       18.0381909562       12.7135947678
  C        44.4743699079       18.0676843921       13.4333196354
  C        41.8316488628       17.1064520801       10.9100248117
  C        41.8591091966       17.1323152098        9.4896600684
  C        43.0799586105       17.2357098745        8.7511693364
  C        46.1534501308       26.6372850667        8.7211616410
  C        46.1624422067       26.6561058908       11.5307983151
  C        14.0454992034       17.8311635524       13.7033555028
  C        15.3666195960       17.9039305107       13.0123541417
  C        15.6414314846       18.9187403613       12.0835366072
  C        16.8705459582       18.9542740721       11.4286798878
  C        17.8526376724       17.9741204420       11.6767434020
  C        17.5846544909       16.9881772322       12.6437063479
  C        16.3575553537       16.9521140783       13.3020257871
  C        19.1199873256       17.9480706054       10.9077082531
  C        19.0957433547       17.9243105787        9.4861978117
  C        17.8758088454       17.8141657347        8.7457666896
  C        28.8074178901       14.0916484498        2.3979157981
  C        28.1929135448       12.9183714941        3.0843350768
  C        28.9118928501       12.1833427699        4.0383403685
  C        28.3118752925       11.1083429217        4.6887808408
  C        26.9784993734       10.7457952828        4.4104559120
  C        26.2815837219       11.4612415217        3.4202344575
  C        26.8797100314       12.5358473995        2.7672177581
  C        26.3084267727        9.6667920242        5.1711961893
  C        26.2935396801        9.6939714481        6.5922543117
  C        26.7958665877       10.8071432104        7.3384408563
  C        32.1778060072       21.2462288967        2.1504649639
  C        32.7698829159       22.4148854578        2.8666585441
  C        32.0178428471       23.0939786049        3.8376291749
  C        32.5854584622       24.1339199790        4.5672053534
  C        33.9208096763       24.5225839547        4.3464192079
  C        34.6553407280       23.8626434716        3.3432406170
  C        34.0900099982       22.8171371681        2.6155280953
  C        34.5468662002       25.5983019532        5.1482601891
  C        34.5353017176       25.5708368201        6.5699948837
  C        34.0227755294       24.4572937697        7.3079923624
  C        25.6835800428        8.6158257195        7.3103581075
  C        25.6736633444        8.6153405718        4.4972855812
  C        32.1053064387       21.2322280959       13.8851132017
  C        32.6953887945       22.3851466891       13.1426202651
  C        31.9540384080       23.0493464475       12.1531127932
  C        32.5313195984       24.0779396735       11.4122899353
  C        33.8632309851       24.4731700273       11.6446442125
  C        34.5874069191       23.8227485190       12.6620655859
  C        34.0151551154       22.7876538884       13.3971582956
  C        34.4996126919       25.5555281948       10.8589413947
  C        34.5100140422       25.5495238356        9.4370063007
  C        34.0096179590       24.4474542886        8.6746523743
  C        40.6226759271       17.1422311669        8.7651503095
  C        40.6007384647       17.1294688581       11.5742646974
  C        28.7322140642       14.0617953976       13.8185346624
  C        28.1169117102       12.9218240670       13.0764681792
  C        28.8553107081       12.2166067009       12.1138154957
  C        28.2718972762       11.1637958457       11.4133284488
  C        26.9349319981       10.7882772888       11.6526539812
  C        26.2129986734       11.4806502754       12.6427602960
  C        26.7942543965       12.5356002861       13.3435385080
  C        26.2941858535        9.6975862620       10.8797810727
  C        26.2884995606        9.7093132776        9.4581914024
  C        26.7919092396       10.8156029451        8.7042531096
  C        18.1353716807        3.1809991229        2.3222892341
  C        17.4060369216        4.2782602959        3.0208930001
  C        16.3903413557        3.9999015547        3.9484248348
  C        15.7426171097        5.0399022460        4.6118983383
  C        16.0945491957        6.3836061302        4.3721894865
  C        17.0839072102        6.6531221707        3.4084074429
  C        17.7329935435        5.6157652794        2.7433750384
  C        15.4702556961        7.4913127371        5.1352357283
  C        15.4856415888        7.4907103242        6.5569430723
  C        16.1872184982        6.4970935171        7.3100906256
  C        42.9459150645       31.8595182946        2.0779787125
  C        43.6463315183       30.7718613674        2.8219204417
  C        44.5918856053       31.0932050305        3.8079593482
  C        45.1975896703       30.0876668730        4.5556355574
  C        44.8711352929       28.7346038478        4.3408110947
  C        43.9452789652       28.4202428338        3.3276351157
  C        43.3364628685       29.4253777958        2.5795814226
  C        45.4887614760       27.6553239619        5.1439934632
  C        45.4929485181       27.6809706853        6.5656869383
  C        44.8058415820       28.6890020668        7.3123131006
  C        14.8566441589        8.5631806580        7.2693080394
  C        14.8749611399        8.5630606318        4.4566389525
  C        42.9464406195       31.9615615945       13.8038692454
  C        43.6916897779       30.8854344978       13.0903997532
  C        44.6563197909       31.1913625100       12.1181458218
  C        45.2778674237       30.1717824239       11.4004351573
  C        44.9540410471       28.8214645573       11.6379972414
  C        44.0204758830       28.5237790792       12.6486913057
  C        43.3921947685       29.5405378626       13.3608679882
  C        45.5631152273       27.7240848660       10.8527462911
  C        45.5334404993       27.7174180056        9.4314494636
  C        44.8270982501       28.7076336847        8.6784974285
  C        35.1162340963       26.6423030033        8.7330011741
  C        35.1117784838       26.6124759845       11.5428202490
  C        18.1485512976        3.2470218158       13.7014977126
  C        17.4299849692        4.3438836164       12.9921741627
  C        16.4147776389        4.0526223108       12.0686118734
  C        15.7664965723        5.0832747352       11.3932199989
  C        16.1212019260        6.4284898269       11.6159511923
  C        17.1125811065        6.7118546908       12.5732042336
  C        17.7602204416        5.6829285125       13.2529763229
  C        15.4907402891        7.5242105690       10.8435249133
  C        15.4966640364        7.5075905204        9.4223955455
  C        16.1934944620        6.5059384635        8.6756935584
  H        10.6725729765       12.4660373318       11.8992043540
  H        11.6948266202       10.5512420904       10.6573049577
  H        15.3915804480       11.1683313047       12.7674523840
  H        14.3510877596       13.0711214687       14.0126952362
  H        13.3763506888       11.6313025297        9.1961901772
  H        50.3228923436       22.7485603520       11.9818229597
  H        49.3197231429       24.6230334809       10.6758178712
  H        45.6421495295       24.1610610438       12.8584699462
  H        46.6630448161       22.2901415116       14.1667038647
  H        47.6298819273       23.5759181087        9.2410993000
  H        14.8721215161        8.5882721122       12.6034265054
  H        50.2871940568       22.7027468676        4.0654520610
  H        49.2691849571       24.5756141059        5.3654982655
  H        45.6105463158       24.1091939672        3.1512233921
  H        46.6526639610       22.2538917914        1.8369698853
  H        47.6078356873       23.5518561746        6.8019779287
  H        40.6630999528       17.1475556117        3.4347391850
  H        48.6870202604       14.0948943646       15.7949009182
  H        10.6814093320       12.4667937787        4.0985371083
  H        11.6896871236       10.5248953977        5.3022881237
  H        15.3934270018       11.1586846998        3.2103973940
  H        14.3648928219       13.0870929300        1.9950768657
  H        13.3759829050       11.6222684544        6.7581934869
  H        47.9301746580       14.2181646551        1.7160343074
  H        47.7800830122       14.3735004829       14.4900091417
  H        49.0842122510       18.5527578492        2.8726733699
  H        10.4160494918       14.1342826353        0.0037766760
  H        24.4829603367        3.0321449330       11.9115784670
  H        25.6174541854        4.8949414364       10.6842307533
  H        23.2340009538        7.7548112135       12.8380474659
  H        22.1181122308        5.8824806180       14.0670727358
  H        23.8038689669        5.7924703183        9.2574028937
  H        36.3691133778       32.1918821947       11.9710594273
  H        35.2394183484       30.3690708838       10.6928263102
  H        37.5114285813       27.4421731572       12.8775202466
  H        38.6201847545       29.2776455583       14.1658502890
  H        37.0075732592       29.4621660271        9.2706200012
  H        25.7153644286        8.6188357695       12.6448090710
  H        36.4530029533       32.2488229527        4.1113070034
  H        35.3340880798       30.4354377264        5.4071636517
  H        37.5195184947       27.4910783153        3.1570378880
  H        38.6127379600       29.3162509766        1.8479487748
  H        37.0257516388       29.4827698631        6.8328937445
  H        46.1093190169       26.5875833005        3.3906885016
  H        44.6682374054       35.1161554412       15.8088354791
  H        24.4363197408        3.0406562854        4.0907016135
  H        25.5666675058        4.8812601892        5.3414342166
  H        23.1634266553        7.7679825429        3.2468348370
  H        22.0448963299        5.9153904366        1.9958474879
  H        23.7867794605        5.7922705997        6.8188502893
  H        44.9536687844       34.3901988459        1.7001620141
  H        44.9016095797       34.2067156567       14.4855631892
  H        40.6658298372       33.2089608903        2.8581963745
  H        23.1503564163        1.9577996713        0.0102326771
  H        25.7991572534       19.6742497422       11.9232758035
  H        23.6319487120       19.7105141309       10.6904194160
  H        22.3675339175       16.1957633160       12.8220535085
  H        24.5443441430       16.1684696428       14.0480357686
  H        23.7244166889       17.6743396743        9.2378703152
  H        35.1459678632       15.4636428900       11.9754405118
  H        37.2673154915       15.4336485225       10.6554746094
  H        38.7017642662       18.8034840686       12.9114637775
  H        36.5755698793       18.8152774221       14.2305000035
  H        37.2308752663       17.4297403402        9.2452240018
  H        20.3598105442       17.9691181880       12.6623410360
  H        35.2114349174       15.4683481780        4.0827690521
  H        37.3446884405       15.4276699963        5.3861804891
  H        38.7391244951       18.8516976435        3.1881023222
  H        36.6024378878       18.8726779597        1.8836442953
  H        37.2512080823       17.4376279987        6.8018638395
  H        35.1395056792       26.6913221433        3.4013458801
  H        28.5081223524       21.0882123795       15.9737789178
  H        25.7410363383       19.6474646974        4.1419822335
  H        23.5572732627       19.6989276099        5.3605064437
  H        22.3071391751       16.1664508142        3.2502142054
  H        24.4919758621       16.1353611416        2.0303386357
  H        23.7019022896       17.6618861460        6.7968679350
  H        29.0088746221       21.7193382323        1.7647004766
  H        29.1497242999       21.7485998080       14.6098078881
  H        32.0893899563       18.5780055477        2.9906546544
  H        27.4017811317       19.0804354804        0.0933341737
  H        14.8489874064       19.6466616995        4.1461062056
  H        17.0117466351       19.6908212422        5.3894811965
  H        18.3009783684       16.1845546019        3.2581704434
  H        16.1340468801       16.1559411293        2.0147778575
  H        16.9208483297       17.6899572427        6.8525967837
  H        46.0939713687       15.4586227790        4.0884328105
  H        43.9729504965       15.4212938001        5.4044436744
  H        42.5692044138       18.8493123020        3.2173752489
  H        44.6901226678       18.8614402508        1.8915632963
  H        44.0338760196       17.3666665345        6.8569289156
  H        20.2885183225       17.9197568629        3.4249442941
  H        46.0391407685       15.3907882704       12.0286095431
  H        43.9056715925       15.3371039865       10.7348226880
  H        42.5180877201       18.7892707779       12.8927166690
  H        44.6585322878       18.8303214779       14.1859304317
  H        44.0138291087       17.3349535343        9.2968179401
  H        46.1992131727       26.6826166060       12.6182475152
  H        52.7411571362       21.0626296681        0.1998011384
  H        14.8819645847       19.6734676857       11.8914455433
  H        17.0826047482       19.7442571273       10.7114055127
  H        18.3340574899       16.2249132293       12.8430506287
  H        16.1354256641       16.1779879387       14.0324867174
  H        16.9426506714       17.7044649292        9.2900698181
  H        52.3223222526       21.6732327552       14.2891933820
  H        52.0131359497       21.7019883772        1.5007536951
  H        49.0673750029       18.6077671813       13.1991331293
  H        13.2475656159       19.0162984290       15.9721094517
  H        29.9380484201       12.4701961727        4.2566014320
  H        28.8708615371       10.5366834882        5.4264115634
  H        25.2513808399       11.1907270451        3.1979380977
  H        26.3397992583       13.1097890371        2.0180960632
  H        27.1597891293       11.6758643689        6.7982600479
  H        30.9922289654       22.7802298987        4.0160863515
  H        31.9974319652       24.6595616338        5.3163879436
  H        35.6889055386       24.1539248860        3.1675592620
  H        34.6627003898       22.2815878345        1.8618022360
  H        33.6642445562       23.5897740493        6.7613366690
  H        25.7053217922        8.5955281818        3.4093447596
  H        30.9270830004       22.7391261187       11.9734190739
  H        31.9503437328       24.5941260314       10.6510585896
  H        35.6185412524       24.1172483982       12.8462157081
  H        34.5795242482       22.2623412966       14.1641728852
  H        33.6415631978       23.5718995952        9.2020536225
  H        40.5926951086       17.0819533275       12.6615193790
  H        32.5225144034       14.1383222443        0.2716048632
  H        29.8891166796       12.5030030004       11.9347465524
  H        28.8514803103       10.6128424400       10.6758041495
  H        25.1785497209       11.2025303334       12.8338106536
  H        26.2346710722       13.0859108032       14.0963238147
  H        27.1518948776       11.6908060591        9.2373003732
  H        33.2976549586       14.1904898503       14.4306359283
  H        33.4098925437       14.4055942451        1.6188624633
  H        32.2315852630       18.5864515565       13.2619207046
  H        30.2196034745       14.1817898027        0.0959405027
  H        16.1182978135        2.9633884044        4.1348154430
  H        14.9531649170        4.8205264051        5.3275573857
  H        17.3663331373        7.6859971791        3.2152934759
  H        18.5150014083        5.8183800991        2.0154838631
  H        16.7537800145        5.7397622255        6.7765846809
  H        44.8281581070       32.1402932275        3.9821156752
  H        45.9374710373       30.3414281878        5.3115629544
  H        43.6825366455       27.3781751613        3.1575723502
  H        42.5998081705       29.1900195129        1.8149585427
  H        44.2304503834       29.4367370313        6.7740012182
  H        14.8511107556        8.5462295758        3.3684225433
  H        44.8998938223       32.2340451288       11.9267597004
  H        46.0248086958       30.4130163276       10.6472364840
  H        43.7634444290       27.4840518006       12.8401798879
  H        42.6456562205       29.3177215338       14.1192698428
  H        44.2685379991       29.4704816609        9.2130810074
  H        35.0738411378       26.6220390144       12.6304739038
  H        36.6050905312       35.1341723954        0.1856636279
  H        16.1436835345        3.0130428758       11.8989091873
  H        14.9741624011        4.8564519602       10.6831381028
  H        17.3961075416        7.7473160809       12.7500861548
  H        18.5430942383        5.8933294622       13.9777565978
  H        16.7649114624        5.7557019910        9.2141535796
  H        36.2786169508       34.4825169763       14.2682130761
  H        36.3808464374       34.2092127987        1.5046767524
  H        40.5801528049       33.2024560573       13.1485985526
  H        17.4705899205        1.9474122705       15.9690776949
  H        29.2150640696       19.4968570209        4.5559370540
  H        28.9040889388       18.9144051976       11.8039768825
  H        30.6066046896       15.4661783093       11.9221871683
  H        31.0850080181       15.5692997673        4.4713886045
  H        28.2390465977       18.3886040657        6.7724001347
  H        29.1562119823       15.4608120692        6.3630975258
  H        30.8623380596       19.7860204082       10.1837631524
  H        29.1519966731       16.6583871193        9.7744868076
  H        18.8539708173        0.8692091493        4.3405209411
  H        40.5279559043       35.2290626605       11.9469605156
  H        42.3239053955       34.4188291960       11.5853884761
  H        22.0878777357        0.6923780583        4.3565676820
  H        11.5969208090       18.7132189057        4.3877097054
  H        52.2648457117       18.4311044242       11.6720204995
  H        49.2551646235       16.4771483493       11.5794745004
  H        10.1509730791       15.7980816187        4.2974489358
  H        50.8500365709       17.6923904107       11.9491863663
  H        10.0465017928       17.3944633754        4.0570712244
  H        20.2152735000        0.0024196407        4.0470563848
  H        39.1836752687       36.1243862257       11.6811529111
 Ni        30.8187046908       17.6470032417       11.1529972810
 Ni        30.7318293016       16.3791899325        8.0784218005
 Ni        30.1409760167       18.7680362399        8.1612183172
 Ni        30.3082451057       17.5537840394        5.3286023323
  O        10.6499861628       14.3650930472       13.4806972937
  O        12.6132086332       14.6575049375       14.5787933477
  O        49.1481094627       16.8459208838       15.9846422429
  O        50.3502844639       20.9358644364       13.6429860783
  O        48.3485836339       20.5933520510       14.6607972340
  O        11.0517061013       17.0539107848       14.4955374804
  O        50.3210716900       20.8816669160        2.4119414610
  O        48.3467921284       20.5868221382        1.3322588783
  O        49.5437988492       18.2484478387        2.0734370202
  O        12.3590747363       18.6246122414        0.0047832836
  O        48.6932705461       14.1485065820       14.7462044793
  O         8.2098737729       14.2103850443        1.3276786887
  O        10.7353965510       14.5067108628        2.6694351446
  O        12.5718238938       14.5828301470        1.3335692318
  O        22.8444143733        2.0429970276       13.4822292481
  O        21.6048883780        3.5918566099       14.5851495944
  O        42.0582257737       34.1373643140       15.9739103918
  O        37.9817783618       33.1392425538       13.5678100920
  O        39.2180467253       31.5765412805       14.6614923814
  O        20.3084394617        1.0396052955       14.4969433858
  O        38.0250338238       33.1867126777        2.4199672820
  O        39.2189435040       31.5837066907        1.3318171930
  O        40.6523401981       33.7693702454        2.0653782709
  O        18.2553136533        1.3763018549        0.0019459475
  O        44.6222487159       35.1005369783       14.7536303186
  O        24.2054611542        0.0000127708        1.3259054016
  O        22.7529487928        2.0576313654        2.5887758696
  O        21.6242287278        3.5958404786        1.3473660515
  O        27.5007586994       18.7520674764       13.4856207716
  O        26.7612387873       16.9394950477       14.6479229101
  O        30.6721862273       19.4090989179        0.0812614845
  O        33.5856628848       16.2770172495       13.6638876803
  O        34.2739231904       18.1693047539       14.7320652429
  O        29.5735890526       17.0666966976       14.5828776531
  O        33.6209580243       16.3300626362        2.4185558174
  O        34.3069109873       18.2476131129        1.4124832644
  O        31.6570896620       18.3149839749        2.1615646792
  O        30.3202574553       15.1476900793        0.1035160901
  O        28.5527725080       21.0353639827       14.9003769101
  O        28.5140729890       20.9574844866        1.4174366934
  O        27.4568128259       18.6789406334        2.6651837820
  O        26.6941348856       16.9291452501        1.4176669215
  O        13.1486662348       18.6929440451        2.5925351707
  O        13.9192667101       16.9161643216        1.4099974992
  O        50.5963433100       19.3502891397        0.0255461522
  O        47.6834412717       16.3271065102        2.4224472111
  O        46.9524163261       18.1760389030        1.3292728713
  O        11.0697694829       17.0155403647        1.4947667707
  O        47.6764480987       16.3353906490       13.6481509731
  O        46.9284626891       18.2357020271       14.6601925002
  O        49.5688091116       18.3177085081       13.9771496002
  O        10.3186726430       15.1001334427        0.0021731337
  O        52.6707919054       21.0279125429        1.2469349447
  O        12.1468674615       20.8911994167       14.6680917091
  O        13.1085121774       18.6135771447       13.3203672350
  O        13.9572384585       16.9869546618       14.6603404607
  O        29.9918465366       14.4406265728        2.7383016567
  O        28.0893138799       14.6538740487        1.5002876929
  O        32.1421605539       16.8633638009        0.1044765294
  O        30.9653154415       20.9550291803        2.4137496975
  O        32.9475534295       20.6053005086        1.3476307714
  O        29.5684759382       17.0765962233        1.5814832207
  O        30.8771852811       20.9504529285       13.6633274665
  O        32.8822558127       20.5840011440       14.6631633427
  O        31.6852166086       18.2534352868       13.9919864299
  O        28.2854360525       18.6782153615        0.0842251825
  O        32.4950854602       14.2129653247        1.3410328277
  O        32.4094532141       14.2034505721       14.8243798549
  O        29.9095838802       14.4282657470       13.4917874928
  O        28.0345046476       14.5890362598       14.7520141514
  O        17.8891919055        1.9666812456        2.6679589319
  O        18.9561691813        3.5271987390        1.4131195868
  O        39.1686724343       34.1388927819        0.0023114550
  O        43.2802388473       33.0589615832        2.3367983622
  O        42.0345417795       31.5064404596        1.2467454651
  O        20.3177180832        1.0366981615        1.4853517055
  O        43.2760846536       33.1825543462       13.5698070276
  O        42.0052728508       31.5840824877       14.5778760179
  O        40.5790866442       33.7750111114       13.9308029273
  O        22.3672901857        1.3845167705        0.0030928228
  O        36.6727052593       35.0998462709        1.2383447797
  O        16.4454899765        0.0644205444       14.6632582921
  O        17.9364673564        2.0434517566       13.3212204583
  O        18.9189654427        3.5931715060       14.6608245128
  O        29.8125170053       18.9777301515       12.1547562074
  O        29.8280672642       18.9711290622        4.0092899488
  O        31.1888669962       16.1891585846       12.2316973233
  O        31.3080395478       16.4042073070        4.0109101690
  O        30.0397414833       16.2595789937        9.8405207909
  O        30.0783261842       15.7636624539        6.3323830039
  O        31.5491018277       17.8776053398        6.9908460593
  O        31.1598537462       18.9624036115        9.7494193057
  O        29.1457843362       18.6876937327        6.5944271212
  O        39.4567845799       35.2438178408       11.9968674857
  O        19.1418620443        0.0048052108        3.9956473680
  O        41.9695645309       35.1726979424       12.0820525662
  O        21.6915024843       -0.0691638798        3.9011001764
  O        51.3651017742       18.6143028406       12.0002877830
  O        10.7511958020       18.7472158005        3.9100317589
  O        50.0796644910       16.4128316227       12.0866109382
  O         9.5249586264       16.4829744838        3.9963396800
 Zr         9.2969686689       16.0527251452       14.1773756249
 Zr        49.8362967318       16.0066563876        1.7514806129
 Zr        22.0732255314        0.0297397152       14.1839733483
 Zr        42.4609553171       35.1534179520        1.8060469069
 Zr        29.6118757756       19.1090260206       14.3211632095
 Zr        29.5806022647       19.1723946522        1.8830363035
 Zr        11.0380365380       19.0519912213        1.8327726438
 Zr        11.0439221111       19.1548549231       14.2459184886
 Zr        31.3525073451       16.1032934400        1.9060272425
 Zr        31.4044798632       16.0015607848       14.3493630554
 Zr        18.6011114214       -0.0012969217        1.7685391318
 Zr        18.5064770691       -0.0074707259       14.2086670917
 Zr        12.3019050111       16.3235342938       15.9851766536
 Zr        48.6167689507       18.8332927045        0.0153529571
 Zr        20.3149450735        2.4732181303       15.9855548739
 Zr        40.6434084248       32.6871370367       15.9732180442
 Zr        28.3470205466       16.3451895884        0.0900349242
 Zr        32.6399692875       18.8437955225        0.0739158396
  H        32.4954116071       18.0923675333        7.0081069124
  H        28.9667187066       19.1306964793        8.9235886635
  H        32.0475628640       14.9938783247        7.8517136185
  H        31.8426622741       14.8641641817        8.5857349453
