     573
 i =      235, E =     -4762.7647355443
  C        11.8587876873       14.0535232289       13.7364689385
  C        12.4563053751       12.8906036735       13.0181588081
  C        11.7046685581       12.1717919146       12.0763684673
  C        12.2810419694       11.1095775255       11.3840340388
  C        13.6215830904       10.7397120244       11.6118507667
  C        14.3546532953       11.4431119146       12.5855154540
  C        13.7817760255       12.5081004584       13.2770066856
  C        14.2611268276        9.6490640697       10.8384618411
  C        14.2564373859        9.6569989595        9.4167650447
  C        13.7433529312       10.7591651729        8.6628617876
  C        49.1268578811       21.2332397280       13.8745638488
  C        48.5501485237       22.4011771194       13.1474965936
  C        49.3002014709       23.0685562973       12.1665507387
  C        48.7332979409       24.1077458697       11.4334030352
  C        47.4027096174       24.5092943757       11.6619360604
  C        46.6717072846       23.8603511138       12.6753655878
  C        47.2341451881       22.8154088376       13.4046631498
  C        46.7724582289       25.5869923976       10.8646827656
  C        46.7615308831       25.5574340041        9.4429237709
  C        47.2614807175       24.4423515453        8.6994254866
  C        14.8604164326        8.5706828852        8.7035031524
  C        14.8918276553        8.5970709411       11.5151119690
  C        49.1132830962       21.2035130115        2.1505278088
  C        48.5279763808       22.3648763895        2.8776747797
  C        49.2671945449       23.0255907663        3.8706016760
  C        48.6908753275       24.0601668269        4.6020356543
  C        47.3604780351       24.4569804546        4.3637552999
  C        46.6400661475       23.8120726187        3.3402301214
  C        47.2136126277       22.7761489266        2.6084786087
  C        46.7219901988       25.5319055826        5.1547961226
  C        46.7337636582       25.5282693268        6.5764967683
  C        47.2492269141       24.4290661057        7.3328744720
  C        40.6346500577       17.1659675899        7.3324542446
  C        40.6536601341       17.1899406299        4.5236573142
  C        11.8829614416       14.0865286783        2.2905863873
  C        12.4722553519       12.9106981363        2.9947968891
  C        11.7147953404       12.1776516672        3.9210735958
  C        12.2813630902       11.0951684329        4.5894604889
  C        13.6201158682       10.7212888646        4.3574811573
  C        14.3579979912       11.4366859293        3.3964805504
  C        13.7926057961       12.5178880031        2.7238199723
  C        14.2537599265        9.6245897707        5.1279148649
  C        14.2525406374        9.6446091648        6.5497511125
  C        13.7427647848       10.7536105253        7.2968165223
  C        22.5111987533        3.2438587698       13.7481282435
  C        23.2248942954        4.3489857403       13.0479710266
  C        24.2221929879        4.0686964251       12.1023260910
  C        24.8482754617        5.1081696149       11.4195268000
  C        24.4925642911        6.4495950621       11.6628044953
  C        23.5233198349        6.7214834613       12.6454101678
  C        22.8926629426        5.6838309253       13.3265941327
  C        25.0977733901        7.5560163732       10.8873493738
  C        25.0711148006        7.5490757090        9.4659183186
  C        24.3696293883        6.5495513504        8.7194891946
  C        38.3017450747       31.9308647620       13.8447190223
  C        37.5691831529       30.8429205773       13.1366627207
  C        36.6049897857       31.1491895267       12.1641829632
  C        35.9838822633       30.1306262850       11.4471031484
  C        36.3129442916       28.7811062968       11.6805428874
  C        37.2475441307       28.4821937730       12.6896987358
  C        37.8722564564       29.4994490971       13.4062193806
  C        35.7081145877       27.6911653559       10.8831768317
  C        35.7360215211       27.7081801842        9.4618731776
  C        36.4385634372       28.7129371308        8.7247997538
  C        25.6939632587        8.6193897450        8.7465410181
  C        25.6935869104        8.6309970971       11.5588674916
  C        38.3286038678       31.9622132936        2.1618367159
  C        37.6060386414       30.8903229824        2.9046638123
  C        36.6726635662       31.2013480448        3.9054156774
  C        36.0597678074       30.1847715848        4.6352798208
  C        36.3660579856       28.8315118685        4.3883999821
  C        37.2777578875       28.5303971361        3.3579770735
  C        37.8924454377       29.5434736549        2.6290065986
  C        35.7550717573       27.7341055962        5.1728613272
  C        35.7597824051       27.7302835149        6.5949962326
  C        36.4494029256       28.7239222018        7.3583195279
  C        46.1356883826       26.6208640853        7.2866366939
  C        46.0880041556       26.5802476531        4.4787469341
  C        22.4606108195        3.2559777747        2.2626654452
  C        23.1539822218        4.3653406276        2.9854112980
  C        24.1576575032        4.0804596166        3.9248399818
  C        24.7846396884        5.1113628471        4.6206040292
  C        24.4280141255        6.4567590922        4.3996115393
  C        23.4474873099        6.7349594551        3.4285233809
  C        22.8159696149        5.7043096074        2.7331574153
  C        25.0574862854        7.5553476923        5.1743308339
  C        25.0507736429        7.5483421083        6.5971080626
  C        24.3581592434        6.5503271019        7.3528736694
  C        26.6165676973       17.8601836541       13.7799511512
  C        25.3103328942       17.9058809083       13.0553091201
  C        25.0466697116       18.9081909148       12.1079348169
  C        23.8348230381       18.9269853421       11.4200503788
  C        22.8490898267       17.9477497967       11.6582198974
  C        23.1084071485       16.9682795584       12.6357557862
  C        24.3225176621       16.9433479679       13.3206719114
  C        21.5765406623       17.9339960675       10.8925694470
  C        21.5778113069       17.9179327363        9.4698775925
  C        22.7843764408       17.8029009056        8.7094994260
  C        34.4460695693       17.1911145089       13.9235075751
  C        35.7419473844       17.1431344232       13.1875947339
  C        35.9359974624       16.1959489473       12.1700826085
  C        37.1134843200       16.1936856356       11.4281367188
  C        38.1281419939       17.1361897478       11.6851555010
  C        37.9371304809       18.0612279756       12.7294197263
  C        36.7562918757       18.0707333155       13.4677857102
  C        39.3801352781       17.1539493411       10.8962567171
  C        39.3761287900       17.1822091583        9.4747452638
  C        38.1704302538       17.3200207869        8.7173648239
  C        20.3313644216       17.9337607611        8.7608830011
  C        20.3514840795       17.9331147955       11.5743825300
  C        34.4782954774       17.2484629749        2.1869197864
  C        35.7794195918       17.1823597155        2.9127651330
  C        35.9911515106       16.2094541512        3.9010345584
  C        37.1752568708       16.2000584211        4.6325632560
  C        38.1762833067       17.1614417439        4.3930255813
  C        37.9705508124       18.1092495287        3.3734674887
  C        36.7835140329       18.1251662973        2.6463037795
  C        39.4227220777       17.1839944011        5.1883775383
  C        39.3982221713       17.1977437408        6.6091599040
  C        38.1812137612       17.3251579570        7.3506027523
  C        35.1291792668       26.6509802455        7.2990666746
  C        35.1686539378       26.6614164323        4.4897725717
  C        26.5733933252       17.8281123142        2.3272275228
  C        25.2572610312       17.8727282185        3.0328710114
  C        24.9828260858       18.8923610174        3.9569004324
  C        23.7659133620       18.9174306208        4.6327871869
  C        22.7930790088       17.9234793531        4.4062217835
  C        23.0609542586       16.9283489033        3.4490268362
  C        24.2792184110       16.9008257864        2.7724010521
  C        21.5291719273       17.9069688213        5.1797043918
  C        21.5532040530       17.9031085235        6.6011419924
  C        22.7723756028       17.7961776920        7.3431307575
  C        14.0467807476       17.8288163700        2.2938310771
  C        15.3513863838       17.8857083447        3.0188951863
  C        15.6086210930       18.8890131072        3.9662245657
  C        16.8178332232       18.9095632654        4.6587319064
  C        17.8040372626       17.9295933934        4.4261231121
  C        17.5515633123       16.9505139456        3.4466553662
  C        16.3417770781       16.9253492884        2.7557885437
  C        19.0731859938       17.9128484866        5.1949572180
  C        19.0718055668       17.9114014315        6.6174154200
  C        17.8646786635       17.8112976678        7.3783884213
  C        46.8061201054       17.2207780957        2.1654265803
  C        45.5183146131       17.1663663383        2.9145767779
  C        45.3107485271       16.1948964891        3.9058475568
  C        44.1308908414       16.1866526833        4.6451435182
  C        43.1294948437       17.1500113916        4.4144451372
  C        43.3344816858       18.1011060856        3.3968168397
  C        44.5148911811       18.1134285133        2.6588791825
  C        41.8771112438       17.1709246014        5.2032032287
  C        41.8819927687       17.1724675318        6.6248483910
  C        43.0909424619       17.2610674606        7.3841223674
  C        20.3184092009       17.9252544579        7.3259980103
  C        20.2975200838       17.8920366872        4.5128078474
  C        46.7865466619       17.2307380671       13.8860334194
  C        45.4825374426       17.1264613326       13.1740002552
  C        45.2631009632       16.1335578352       12.2075377588
  C        44.0747654068       16.1129668760       11.4820511871
  C        43.0780428714       17.0819171986       11.7074331541
  C        43.2868067766       18.0426023545       12.7142247594
  C        44.4762834681       18.0699920086       13.4342800584
  C        41.8335441508       17.1145527765       10.9099193210
  C        41.8599360602       17.1420199949        9.4896839435
  C        43.0803999436       17.2442590154        8.7504628633
  C        46.1534600909       26.6372839745        8.7211829440
  C        46.1624361969       26.6560626646       11.5308232547
  C        14.0454848830       17.8312863643       13.7032755755
  C        15.3662669799       17.9045202357       13.0119245699
  C        15.6403976390       18.9200096415       12.0836290232
  C        16.8692348353       18.9563667603       11.4283649288
  C        17.8517525802       17.9764532827       11.6756392533
  C        17.5843751825       16.9897030479       12.6419765295
  C        16.3575550243       16.9528303967       13.3007279811
  C        19.1192713972       17.9518684391       10.9069590751
  C        19.0959888726       17.9300323870        9.4854269915
  C        17.8764927137       17.8196590131        8.7443793085
  C        28.8070829961       14.0919113557        2.3938305272
  C        28.1909869958       12.9211698345        3.0832006220
  C        28.9102225477       12.1862569039        4.0371776680
  C        28.3103886350       11.1116667049        4.6884436959
  C        26.9766027104       10.7492557809        4.4115769979
  C        26.2789788242       11.4653515167        3.4222197854
  C        26.8770523387       12.5394086427        2.7680283158
  C        26.3076946262        9.6694847810        5.1725759039
  C        26.2965480280        9.6946401901        6.5938305057
  C        26.8016268265       10.8062372172        7.3406080247
  C        32.1800147152       21.2439488146        2.1488137512
  C        32.7738353438       22.4095119727        2.8671490924
  C        32.0231701398       23.0872882030        3.8402783273
  C        32.5917382152       24.1262603629        4.5704062712
  C        33.9265385321       24.5161497343        4.3478651767
  C        34.6597248412       23.8571962202        3.3429123707
  C        34.0937590196       22.8122397356        2.6148948236
  C        34.5522873441       25.5924992811        5.1493031813
  C        34.5396869423       25.5658811419        6.5711359182
  C        34.0297611130       24.4515002987        7.3095909346
  C        25.6877819075        8.6157710272        7.3119680401
  C        25.6713343486        8.6187218653        4.4988124575
  C        32.1022245588       21.2324402148       13.8840786796
  C        32.6908016858       22.3882039345       13.1470520917
  C        31.9545450371       23.0401501057       12.1454496440
  C        32.5320139385       24.0686787789       11.4048959752
  C        33.8588677212       24.4748740765       11.6475646203
  C        34.5773873492       23.8359888679       12.6765877759
  C        34.0052364717       22.8015520558       13.4125000618
  C        34.4963502710       25.5556590979       10.8605674431
  C        34.5102973036       25.5473012067        9.4383674998
  C        34.0148592060       24.4427615076        8.6762886457
  C        40.6229047051       17.1542159661        8.7663649533
  C        40.6034505954       17.1374601612       11.5752900610
  C        28.7380930965       14.0653261274       13.8148410567
  C        28.1281655227       12.9199927669       13.0768280267
  C        28.8678921859       12.2120138170       12.1171757714
  C        28.2853043558       11.1579050744       11.4177004770
  C        26.9476395427       10.7833886361       11.6550510509
  C        26.2249395441       11.4773550837       12.6435184369
  C        26.8052827417       12.5334677584       13.3431841993
  C        26.3060125720        9.6931699031       10.8818162353
  C        26.2983011932        9.7061394035        9.4601590325
  C        26.8013574639       10.8127418849        8.7064992802
  C        18.1353703161        3.1809538571        2.3222885329
  C        17.4060416575        4.2782153898        3.0208953877
  C        16.3903648852        3.9998354710        3.9484430693
  C        15.7426106771        5.0398107465        4.6119299748
  C        16.0944548408        6.3835316985        4.3721747307
  C        17.0837779692        6.6530681676        3.4083578469
  C        17.7328849991        5.6157340617        2.7433135318
  C        15.4701994799        7.4912644640        5.1352163257
  C        15.4854931633        7.4905797162        6.5569268719
  C        16.1871316892        6.4970199620        7.3100934548
  C        42.9458588057       31.8595084181        2.0780132050
  C        43.6462221054       30.7718703312        2.8220144795
  C        44.5917563628       31.0932109642        3.8080765402
  C        45.1974706051       30.0876678027        4.5557363528
  C        44.8710870040       28.7345962197        4.3408535216
  C        43.9452851348       28.4202445564        3.3276249506
  C        43.3364543453       29.4253789764        2.5795846675
  C        45.4887243418       27.6553210996        5.1440341172
  C        45.4929117759       27.6809567340        6.5657279139
  C        44.8056983600       28.6889143205        7.3123567765
  C        14.8566145305        8.5631272666        7.2692824378
  C        14.8748065359        8.5629626080        4.4566212732
  C        42.9464021455       31.9615355709       13.8038596214
  C        43.6916335118       30.8854118932       13.0903849984
  C        44.6563130804       31.1913174200       12.1181696736
  C        45.2778099907       30.1717268230       11.4004324658
  C        44.9540265055       28.8214072372       11.6380572196
  C        44.0203864043       28.5237460376       12.6486893883
  C        43.3921515075       29.5405182134       13.3608873275
  C        45.5630763838       27.7240294971       10.8527825302
  C        45.5333813494       27.7173670072        9.4314854020
  C        44.8269817787       28.7075473205        8.6785409930
  C        35.1156560245       26.6405310448        8.7339712010
  C        35.1069159497       26.6142423975       11.5437395523
  C        18.1485923599        3.2470107592       13.7014862166
  C        17.4299896091        4.3438808772       12.9922097266
  C        16.4148365678        4.0526041055       12.0685895630
  C        15.7665274380        5.0832375548       11.3931951786
  C        16.1211692867        6.4284639299       11.6159750276
  C        17.1125086563        6.7118506603       12.5732681467
  C        17.7601711553        5.6829369613       13.2530381002
  C        15.4907371821        7.5241876846       10.8435240721
  C        15.4965892663        7.5075535092        9.4223913652
  C        16.1933743354        6.5058630470        8.6756970057
  H        10.6725649061       12.4659823496       11.8992926927
  H        11.6948094335       10.5511902501       10.6573767228
  H        15.3916551342       11.1684488935       12.7673110590
  H        14.3511757497       13.0712281206       14.0125638051
  H        13.3763475496       11.6312869348        9.1961798640
  H        50.3229454704       22.7486004909       11.9818706481
  H        49.3197977527       24.6230825154       10.6758852100
  H        45.6421671771       24.1610193131       12.8584410692
  H        46.6630808304       22.2901062493       14.1666703848
  H        47.6300079764       23.5759659512        9.2411026568
  H        14.8721267747        8.5882977079       12.6034177017
  H        50.2872404140       22.7027436749        4.0655170292
  H        49.2692586306       24.5756238322        5.3655435498
  H        45.6106733255       24.1093425339        3.1511454895
  H        46.6527812230       22.2540324035        1.8368948621
  H        47.6079689005       23.5519286201        6.8019851953
  H        40.6596701808       17.1532421290        3.4359903324
  H        48.6870096828       14.0949325878       15.7948584267
  H        10.6813597303       12.4668105565        4.0985481333
  H        11.6896087667       10.5248600416        5.3022577005
  H        15.3933782695       11.1586828688        3.2104382736
  H        14.3648956327       13.0871466749        1.9951661279
  H        13.3759640306       11.6222277309        6.7581661534
  H        47.9301554354       14.2183024786        1.7161013511
  H        47.7801417415       14.3737055707       14.4900090816
  H        49.0842133922       18.5527128807        2.8727207376
  H        10.4161100183       14.1342853433        0.0038717143
  H        24.4839736542        3.0300965302       11.9127407693
  H        25.6219500199        4.8911704094       10.6862117466
  H        23.2415533411        7.7544054956       12.8389892405
  H        22.1220161446        5.8836731983       14.0670511932
  H        23.8090735904        5.7921017737        9.2595474163
  H        36.3673498138       32.1928792126       11.9725893684
  H        35.2356647638       30.3710492866       10.6950126431
  H        37.5087160319       27.4426035519       12.8764237382
  H        38.6193269911       29.2770799196       14.1644415811
  H        37.0014037546       29.4643522356        9.2708584536
  H        25.7270144935        8.6141236498       12.6467298200
  H        36.4480750661       32.2460036180        4.1085046567
  H        35.3301744025       30.4316785383        5.4033699369
  H        37.5264617695       27.4897266925        3.1607690181
  H        38.6182945496       29.3157078336        1.8521915233
  H        37.0216496942       29.4832844344        6.8332481411
  H        46.1093526944       26.5876316560        3.3907099056
  H        44.6681939448       35.1161315596       15.8088270358
  H        24.4370393965        3.0425644170        4.0913988648
  H        25.5665457624        4.8834257193        5.3418849170
  H        23.1605420863        7.7690760365        3.2488796434
  H        22.0430755030        5.9162389011        1.9979605380
  H        23.7882722296        5.7938993460        6.8211099536
  H        44.9535026343       34.3901339343        1.7001629239
  H        44.9013530503       34.2065929784       14.4855831581
  H        40.6656875067       33.2088859841        2.8581850354
  H        23.1504325520        1.9577122783        0.0104664208
  H        25.8009593775       19.6703829928       11.9257932617
  H        23.6364039552       19.7105054970       10.6918008720
  H        22.3590935500       16.2032541452       12.8288945404
  H        24.5330726626       16.1734071360       14.0593569740
  H        23.7259878301       17.6892841626        9.2388093869
  H        35.1439549142       15.4783109226       11.9689155915
  H        37.2638641728       15.4531747296       10.6456687406
  H        38.7131726293       18.7964812858       12.9318787546
  H        36.5902663415       18.8021740645       14.2553490056
  H        37.2321995054       17.4523797260        9.2487444394
  H        20.3577606752       17.9701146543       12.6623569767
  H        35.2083399834       15.4785637823        4.0903464594
  H        37.3401058246       15.4432383382        5.3963497451
  H        38.7376992029       18.8574645978        3.1850542062
  H        36.6017420620       18.8748175290        1.8798168185
  H        37.2511075497       17.4601641313        6.8060821665
  H        35.1449698304       26.6851246128        3.4019280920
  H        28.5088103725       21.0854945162       15.9626762582
  H        25.7353698526       19.6596765057        4.1243740696
  H        23.5529679032       19.7119924616        5.3447964293
  H        22.3177943739       16.1543008297        3.2686170710
  H        24.5020876033       16.1210816935        2.0479515014
  H        23.7045258936       17.6774943340        6.7987575618
  H        29.0033088917       21.7219614995        1.7658025079
  H        29.1495266781       21.7491478368       14.6049892465
  H        32.0990696566       18.5868240270        2.9743936358
  H        27.4030844788       19.0704445883        0.0892086520
  H        14.8505049905       19.6483804899        4.1444547891
  H        17.0135666916       19.6939075350        5.3867639543
  H        18.3024797307       16.1859992334        3.2579580743
  H        16.1353367539       16.1561287325        2.0154147982
  H        16.9224553582       17.6946165550        6.8508623075
  H        46.0908656847       15.4599152748        4.0898531800
  H        43.9697076273       15.4255700122        5.4054198313
  H        42.5692172922       18.8528514565        3.2150476518
  H        44.6902924045       18.8620832513        1.8899341529
  H        44.0332008988       17.3734319648        6.8554552251
  H        20.2917457049       17.9182138581        3.4245820106
  H        46.0396631046       15.3940838927       12.0257846917
  H        43.9061881597       15.3440114211       10.7312939519
  H        42.5207481969       18.7939238149       12.8941678265
  H        44.6610531060       18.8312549002       14.1881091229
  H        44.0147048298       17.3426863003        9.2955208553
  H        46.1991910649       26.6825770826       12.6182716867
  H        52.7411885263       21.0626397362        0.1998164156
  H        14.8806113076       19.6745984628       11.8922892235
  H        17.0809013920       19.7469640900       10.7116546093
  H        18.3341595957       16.2266351035       12.8406271300
  H        16.1359082595       16.1781959764       14.0307987991
  H        16.9431260522       17.7094480921        9.2882185107
  H        52.3223742776       21.6732735218       14.2892187711
  H        52.0131416679       21.7019714036        1.5007865259
  H        49.0677138051       18.6078971160       13.1992001937
  H        13.2476381565       19.0162218751       15.9721654377
  H        29.9365862592       12.4727769898        4.2547322514
  H        28.8700579165       10.5398198034        5.4254037720
  H        25.2483466675       11.1955132594        3.2010624208
  H        26.3364939233       13.1131861058        2.0192242280
  H        27.1644802640       11.6758108339        6.8010858603
  H        30.9977693939       22.7737528687        4.0201101335
  H        32.0046318455       24.6503294893        5.3213884305
  H        35.6928867390       24.1489943012        3.1657655123
  H        34.6658433478       22.2779598293        1.8598168552
  H        33.6749038322       23.5818186745        6.7640061919
  H        25.7007400834        8.6002351315        3.4107772811
  H        30.9336987546       22.7176958926       11.9527134009
  H        31.9547436782       24.5746538856       10.6341172450
  H        35.6048180318       24.1381503533       12.8687083519
  H        34.5665006344       22.2847530169       14.1875197474
  H        33.6491164174       23.5659156972        9.2031945029
  H        40.5966369020       17.0872591406       12.6624137170
  H        32.5231812563       14.1401428415        0.2638050992
  H        29.9022665665       12.4968150813       11.9390178532
  H        28.8658938935       10.6056586159       10.6819184739
  H        25.1900817157       11.2001096074       12.8336083083
  H        26.2441318719       13.0854112541       14.0935555463
  H        27.1630965805       11.6871599684        9.2397366726
  H        33.2942903735       14.1818335994       14.4245957791
  H        33.4101320506       14.4007731365        1.6173298952
  H        32.3284944313       18.6481842047       13.2451453365
  H        30.2208996400       14.1905265877        0.0824347600
  H        16.1183795556        2.9633169039        4.1348862643
  H        14.9531793450        4.8204065625        5.3276037484
  H        17.3661211284        7.6859566616        3.2151899647
  H        18.5148552752        5.8183636744        2.0153891321
  H        16.7536367645        5.7396503928        6.7765804905
  H        44.8279690237       32.1403042571        3.9822876945
  H        45.9372908773       30.3414261108        5.3117226122
  H        43.6825718749       27.3781762524        3.1575337824
  H        42.5998361537       29.1900143971        1.8149294963
  H        44.2302386161       29.4365982278        6.7740482816
  H        14.8509827395        8.5461633517        3.3684023290
  H        44.8998904965       32.2339965977       11.9267632615
  H        46.0247728819       30.4129340313       10.6472456695
  H        43.7633407490       27.4840244175       12.8401872088
  H        42.6455782561       29.3177048879       14.1192559455
  H        44.2683265481       29.4703228258        9.2131306889
  H        35.0669579686       26.6256748373       12.6312969838
  H        36.6050774749       35.1341456169        0.1856678159
  H        16.1437648896        3.0130202842       11.8988762689
  H        14.9742074389        4.8563807054       10.6831076525
  H        17.3959587862        7.7473267843       12.7501957573
  H        18.5429820907        5.8933655498       13.9778777805
  H        16.7648084973        5.7556191139        9.2141301662
  H        36.2785617459       34.4825864513       14.2682281025
  H        36.3807543464       34.2092157172        1.5047014201
  H        40.5799706391       33.2024326987       13.1487423556
  H        17.4706240239        1.9472812276       15.9691117474
  H        29.2032031400       19.4819607800        4.5362957119
  H        28.8273186950       19.0950911375       11.6496732546
  H        30.8230541938       15.3363638563       11.7799073613
  H        31.1316990960       15.4936302922        4.4403379118
  H        28.1383507267       18.5277862473        6.6682353482
  H        29.1144305579       15.4030301711        6.3217543339
  H        31.0562357830       19.7357980409       10.1432297487
  H        29.0457578498       16.9427835665        9.7075960283
  H        18.8537613867        0.8691455639        4.3404817958
  H        40.5279369843       35.2291369366       11.9469793380
  H        42.3236998064       34.4185796524       11.5856008514
  H        22.0879520092        0.6920873797        4.3566787547
  H        11.5969304449       18.7130114031        4.3877297997
  H        52.2648884621       18.4312183635       11.6720061405
  H        49.2551598290       16.4772105012       11.5795951431
  H        10.1501471453       15.7981917182        4.2978211008
  H        50.8500996065       17.6923940514       11.9491704145
  H        10.0461525480       17.3944993323        4.0570602745
  H        20.2150075826        0.0023517419        4.0471151983
  H        39.1836235723       36.1243800226       11.6811103411
 Ni        30.8231437791       17.6430493293       11.2384472671
 Ni        30.6488117885       16.4695645277        7.9960542672
 Ni        30.1827552515       18.9081998716        8.0811839007
 Ni        30.2239505154       17.4531138536        5.1679094549
  O        10.6499922406       14.3650658506       13.4807225065
  O        12.6132137333       14.6575167319       14.5788088010
  O        49.1481980021       16.8459023096       15.9846567982
  O        50.3503177582       20.9358325356       13.6429684307
  O        48.3485899884       20.5933633804       14.6608132243
  O        11.0519305812       17.0538012220       14.4955608941
  O        50.3211233519       20.8816793917        2.4119417512
  O        48.3467955987       20.5868364284        1.3323115731
  O        49.5437771661       18.2484169981        2.0734651010
  O        12.3591060902       18.6246264241        0.0048299360
  O        48.6932811842       14.1485143313       14.7461916723
  O         8.2098345174       14.2104089206        1.3276947361
  O        10.7353846959       14.5067460362        2.6694487831
  O        12.5718237016       14.5828211685        1.3335906283
  O        22.8444452595        2.0429299900       13.4822173716
  O        21.6052480393        3.5921474574       14.5849065223
  O        42.0581610994       34.1373098970       15.9739748424
  O        37.9817352318       33.1394119676       13.5677901983
  O        39.2179548636       31.5765993357       14.6613142696
  O        20.3084918360        1.0397402543       14.4969510606
  O        38.0248429690       33.1862537106        2.4201251578
  O        39.2188845308       31.5836201982        1.3318936299
  O        40.6523083105       33.7693330402        2.0653897241
  O        18.2553791356        1.3762096690        0.0019373773
  O        44.6222504334       35.1005096193       14.7536323362
  O        24.2054025544        0.0000145076        1.3259173498
  O        22.7530470395        2.0580712700        2.5890225907
  O        21.6243459559        3.5960906796        1.3476355531
  O        27.4930437381       18.7524816826       13.4903941092
  O        26.7650742268       16.9343969166       14.6487055247
  O        30.6762212989       19.3941450143        0.0336929340
  O        33.5940045504       16.2761417727       13.6673331891
  O        34.2698357217       18.1735061435       14.7295770624
  O        29.5891288322       17.0700079383       14.5663255262
  O        33.6222360996       16.3300881305        2.4146612897
  O        34.3053892014       18.2492829140        1.4109271033
  O        31.6562805446       18.3128083416        2.1545770468
  O        30.3262894326       15.1560770661        0.0879248118
  O        28.5529178959       21.0348847321       14.8941164190
  O        28.5144143628       20.9575646618        1.4158702994
  O        27.4588147314       18.6794202462        2.6631537535
  O        26.6960103131       16.9287963229        1.4159449369
  O        13.1489531787       18.6928855651        2.5925812401
  O        13.9194877489       16.9161696622        1.4101389025
  O        50.5964138022       19.3503284402        0.0256965290
  O        47.6828900130       16.3272542905        2.4226433797
  O        46.9523255730       18.1761106744        1.3293006190
  O        11.0698120207       17.0154871216        1.4947789846
  O        47.6766035122       16.3353581735       13.6481029587
  O        46.9291188746       18.2356761777       14.6605641201
  O        49.5690216702       18.3177127019       13.9772528813
  O        10.3186694579       15.1001282486        0.0021916169
  O        52.6708045513       21.0279138777        1.2469439251
  O        12.1468667438       20.8912023805       14.6680995051
  O        13.1083547480       18.6136316614       13.3204494242
  O        13.9573691426       16.9870494880       14.6602779110
  O        29.9921307831       14.4398282888        2.7312514047
  O        28.0888643267       14.6553456797        1.4968630021
  O        32.1414226391       16.8656520774        0.0753149529
  O        30.9660543817       20.9542906088        2.4098706873
  O        32.9479755087       20.6015722646        1.3448320497
  O        29.5695590616       17.0756245134        1.5809249046
  O        30.8754111523       20.9499710487       13.6607068000
  O        32.8811419403       20.5783034212       14.6585552053
  O        31.6712211585       18.2456805009       13.8355370049
  O        28.2912032482       18.6778983441        0.0760577984
  O        32.4954850142       14.2119222111        1.3358996940
  O        32.4078017577       14.2081247048       14.8221925659
  O        29.9140056720       14.4364417300       13.4839337794
  O        28.0387151473       14.5891523315       14.7485736068
  O        17.8892012701        1.9666526705        2.6679520574
  O        18.9562021048        3.5271534090        1.4131174504
  O        39.1686553616       34.1388382867        0.0023436187
  O        43.2802616489       33.0589548200        2.3367905139
  O        42.0345278402       31.5064422372        1.2467406816
  O        20.3176729741        1.0366958432        1.4853790429
  O        43.2760808903       33.1825435587       13.5697959362
  O        42.0052805301       31.5841074196       14.5779266368
  O        40.5790852270       33.7750862479       13.9308882481
  O        22.3672699677        1.3845632465        0.0031016369
  O        36.6727435423       35.0998129004        1.2383620595
  O        16.4455089160        0.0644377339       14.6632853680
  O        17.9364704057        2.0434377065       13.3212785520
  O        18.9190136706        3.5931561839       14.6608348237
  O        29.7011140956       19.0375721949       12.0745769341
  O        29.8284470292       18.9761319652        3.9877970581
  O        31.4234488604       16.0423264432       12.0894813062
  O        31.3520245869       16.3361344089        3.9931257952
  O        29.8996444332       16.4825470632        9.8129969132
  O        30.0406932682       15.6913526427        6.2607842429
  O        31.5106305332       17.8054620302        6.8203138662
  O        31.3800523858       18.9017967371        9.7487804339
  O        29.1014935604       18.4608290976        6.5701304658
  O        39.4568028018       35.2438490984       11.9968670658
  O        19.1416973207        0.0047449296        3.9956402861
  O        41.9696240209       35.1727025650       12.0820773969
  O        21.6914556675       -0.0693055981        3.9010701149
  O        51.3651346985       18.6142875673       12.0003301087
  O        10.7512139988       18.7471645877        3.9100373516
  O        50.0797147935       16.4128002346       12.0866270521
  O         9.5243649315       16.4831354138        3.9963277167
 Zr         9.2972152589       16.0527176188       14.1774156218
 Zr        49.8362635029       16.0066955729        1.7514694331
 Zr        22.0731352855        0.0296331465       14.1840133059
 Zr        42.4608646150       35.1533757950        1.8060572634
 Zr        29.5940263857       19.1113952166       14.2598090516
 Zr        29.5865287164       19.1776704323        1.8547328860
 Zr        11.0382278935       19.0519154516        1.8328512403
 Zr        11.0440582902       19.1548382753       14.2459394081
 Zr        31.3585474371       16.0974866418        1.8758989309
 Zr        31.4142586818       15.9972336846       14.2862372113
 Zr        18.6009922179       -0.0015239422        1.7685419770
 Zr        18.5064378462       -0.0075027993       14.2086725320
 Zr        12.3021865978       16.3235780755       15.9852670600
 Zr        48.6169856682       18.8333608313        0.0155132973
 Zr        20.3149821018        2.4731936742       15.9855926450
 Zr        40.6432123733       32.6869368773       15.9732241643
 Zr        28.3531134960       16.3472515433        0.0849709212
 Zr        32.6365766003       18.8421672727        0.0677477969
  H        32.4777734815       17.8709784764        6.7665545472
  H        29.0767875855       19.6275261750        8.8830126937
  H        31.7270501308       14.9427580142        7.9178613690
  H        31.8635120637       15.1775817329        8.6479661868
