     574
 i =      255, E =     -4778.8651404016
  C        11.8588357538       14.0535305131       13.7364476066
  C        12.4563526487       12.8906508920       13.0181400140
  C        11.7046989792       12.1717357245       12.0764335364
  C        12.2811310730       11.1095672237       11.3840831960
  C        13.6217008353       10.7397884154       11.6118854688
  C        14.3548144596       11.4433689976       12.5853771701
  C        13.7818996948       12.5083304175       13.2768708099
  C        14.2612525537        9.6491288049       10.8385190848
  C        14.2566771449        9.6571191070        9.4168267067
  C        13.7436740290       10.7593288380        8.6629342457
  C        49.1269343179       21.2332192071       13.8745050213
  C        48.5502595698       22.4012261374       13.1475228032
  C        49.3001799983       23.0683039769       12.1662686731
  C        48.7332699715       24.1074768058       11.4331033818
  C        47.4028651856       24.5094328785       11.6619960860
  C        46.6720660888       23.8608507869       12.6758170403
  C        47.2344885985       22.8159235069       13.4051468662
  C        46.7725699334       25.5870637082       10.8647005619
  C        46.7615253591       25.5574054139        9.4429399597
  C        47.2614497620       24.4423175490        8.6994340425
  C        14.8605880993        8.5707621441        8.7035742999
  C        14.8919006641        8.5971219055       11.5151826369
  C        49.1132579593       21.2034868934        2.1504416552
  C        48.5279210114       22.3648676507        2.8775538553
  C        49.2670579531       23.0253628012        3.8706909127
  C        48.6907537438       24.0599318362        4.6021467408
  C        47.3604382250       24.4569445437        4.3637252956
  C        46.6401545048       23.8123295770        3.3399114409
  C        47.2136981047       22.7764308343        2.6081152845
  C        46.7219710462       25.5318724066        5.1547783078
  C        46.7336935703       25.5281961058        6.5764858632
  C        47.2491522611       24.4290012858        7.3328816642
  C        40.6351059491       17.1089872023        7.3245599946
  C        40.6568537803       17.1539483811        4.5157050534
  C        11.8831468904       14.0865320889        2.2905865122
  C        12.4725134957       12.9108167326        2.9948474093
  C        11.7150942282       12.1776617046        3.9210741448
  C        12.2817597127       11.0952520834        4.5894906092
  C        13.6205843403       10.7215592287        4.3575897632
  C        14.3584496149       11.4370845175        3.3966730858
  C        13.7929507371       12.5182143397        2.7239907364
  C        14.2542170207        9.6248184799        5.1279850868
  C        14.2529663649        9.6448304568        6.5498231230
  C        13.7431926813       10.7538357187        7.2968884547
  C        22.5125982345        3.2443402787       13.7483008006
  C        23.2296198051        4.3488805425       13.0493920673
  C        24.2264620137        4.0666892400       12.1036749374
  C        24.8565164730        5.1047256777       11.4221272731
  C        24.5056399202        6.4473525886       11.6662002902
  C        23.5368915037        6.7211057130       12.6489093290
  C        22.9021484901        5.6847654531       13.3288584065
  C        25.1137812037        7.5522089673       10.8898329976
  C        25.0835611591        7.5452438835        9.4682780299
  C        24.3770242600        6.5478839139        8.7236033703
  C        38.3029967745       31.9302115959       13.8441769800
  C        37.5746487056       30.8406285632       13.1347826561
  C        36.6155383011       31.1434402893       12.1563402573
  C        36.0005930054       30.1222312320       11.4376585442
  C        36.3303141957       28.7737318311       11.6763151164
  C        37.2594490674       28.4784078426       12.6914987191
  C        37.8785072957       29.4982207195       13.4089686457
  C        35.7299822547       27.6812631699       10.8794765062
  C        35.7598358063       27.6964358060        9.4583274632
  C        36.4648460173       28.6992747227        8.7209541286
  C        25.7071827036        8.6138502726        8.7468165096
  C        25.7137980693        8.6263729932       11.5593394451
  C        38.3287292564       31.9621837855        2.1612485739
  C        37.6072970432       30.8890784799        2.9027814577
  C        36.6796992189       31.1975234560        3.9095636645
  C        36.0703039810       30.1787622772        4.6392247154
  C        36.3742494217       28.8262297353        4.3855862182
  C        37.2790649807       28.5278111503        3.3484014892
  C        37.8906625181       29.5430046734        2.6200467085
  C        35.7675810797       27.7268424671        5.1700787467
  C        35.7791512428       27.7198596683        6.5919623160
  C        36.4736550242       28.7107311042        7.3544713815
  C        46.1356400590       26.6207965521        7.2866377308
  C        46.0879646531       26.5802182258        4.4787364404
  C        22.4600456687        3.2556021786        2.2629218959
  C        23.1525899967        4.3644328440        2.9869377864
  C        24.1542100327        4.0784104954        3.9281698803
  C        24.7810675220        5.1086025053        4.6249324578
  C        24.4263897357        6.4542840937        4.4027384272
  C        23.4476343406        6.7336079963        3.4302031309
  C        22.8160719445        5.7036066709        2.7340492162
  C        25.0577686204        7.5522091303        5.1763875319
  C        25.0545618944        7.5451050800        6.5991577835
  C        24.3614670001        6.5489650756        7.3569958167
  C        26.6239857297       17.8593370556       13.7820419784
  C        25.3166575972       17.9025253046       13.0561283890
  C        25.0692562058       18.8879232494       12.0873717714
  C        23.8561029115       18.9121056580       11.4016126149
  C        22.8549094348       17.9532830119       11.6599089850
  C        23.1006541238       16.9897007920       12.6566039938
  C        24.3148810650       16.9609494379       13.3416229270
  C        21.5813444227       17.9412331532       10.8956174231
  C        21.5795352953       17.9178381088        9.4727637089
  C        22.7838370770       17.7916669925        8.7105948358
  C        34.4393180170       17.1966188896       13.9140096365
  C        35.7305367626       17.1441750384       13.1668211584
  C        35.9381131840       16.1661198085       12.1810032561
  C        37.1170443773       16.1521521967       11.4406656555
  C        38.1217049284       17.1128706273       11.6695727347
  C        37.9168202508       18.0707169990       12.6802921096
  C        36.7342288223       18.0915328427       13.4161384116
  C        39.3773133634       17.1159989298       10.8858253777
  C        39.3747239919       17.1270746179        9.4646384144
  C        38.1690108051       17.2525614858        8.7050924047
  C        20.3322447677       17.9370121899        8.7650478976
  C        20.3562983867       17.9462223720       11.5781962826
  C        34.4789166711       17.2462824207        2.1833264610
  C        35.7822686020       17.1719884253        2.9056021095
  C        35.9992056283       16.1778023358        3.8711865367
  C        37.1841929944       16.1563048468        4.6007715152
  C        38.1798610019       17.1276283231        4.3820673129
  C        37.9695624563       18.0974278815        3.3846843143
  C        36.7817612830       18.1243984974        2.6587244175
  C        39.4255901511       17.1396904935        5.1787155824
  C        39.3995622544       17.1405402696        6.5993209500
  C        38.1802595233       17.2577272818        7.3385936229
  C        35.1495504093       26.6403086821        7.2962203503
  C        35.1769238645       26.6563492382        4.4873530220
  C        26.5677775644       17.8275153302        2.3272632404
  C        25.2516346750       17.8712970110        3.0324145793
  C        24.9836564395       18.8816270609        3.9684440499
  C        23.7672581147       18.9057159229        4.6449812050
  C        22.7884884857       17.9200323544        4.4074742094
  C        23.0499210181       16.9349800217        3.4380013450
  C        24.2678275656       16.9083252145        2.7606945342
  C        21.5256342957       17.9028131349        5.1820679821
  C        21.5509500742       17.8978744322        6.6035698980
  C        22.7700766600       17.7831619159        7.3443640361
  C        14.0462421669       17.8285038529        2.2946968613
  C        15.3495168120       17.8847937204        3.0215978715
  C        15.6061689501       18.8890926711        3.9681125864
  C        16.8144977102       18.9098246047        4.6620769368
  C        17.8003750907       17.9289524885        4.4319572081
  C        17.5481751669       16.9484560774        3.4537760761
  C        16.3394482409       16.9232544348        2.7611512315
  C        19.0696998289       17.9128434495        5.2004428951
  C        19.0697804574       17.9142572195        6.6229402609
  C        17.8633854849       17.8190838753        7.3855214701
  C        46.8072273271       17.2186104647        2.1636835063
  C        45.5192448263       17.1570099669        2.9111384507
  C        45.3137531663       16.1748407279        3.8920881025
  C        44.1337535196       16.1562017357        4.6303033279
  C        43.1314393503       17.1203665564        4.4088735133
  C        43.3344909377       18.0829792819        3.4018386913
  C        44.5148807325       18.1050177193        2.6641915087
  C        41.8791104869       17.1301028458        5.1968488375
  C        41.8830194418       17.1204517895        6.6183760757
  C        43.0911567143       17.2065219927        7.3793245836
  C        20.3172898734       17.9256948180        7.3300654744
  C        20.2930733027       17.8900439620        4.5167996882
  C        46.7851471725       17.2300723317       13.8853948442
  C        45.4808015876       17.1206648320       13.1722932546
  C        45.2613776868       16.1168912460       12.2168393173
  C        44.0730989801       16.0867999862       11.4911966664
  C        43.0753419602       17.0575689407       11.7043539146
  C        43.2845380469       18.0306398379       12.6992823601
  C        44.4739237492       18.0669132083       13.4200733737
  C        41.8306499757       17.0793167671       10.9052558916
  C        41.8583387422       17.0929659338        9.4844111582
  C        43.0795475130       17.1910344802        8.7457137563
  C        46.1534278971       26.6372340725        8.7211856153
  C        46.1625697575       26.6561687699       11.5308190760
  C        14.0465401381       17.8327363531       13.7041524247
  C        15.3685308811       17.9096059935       13.0155566141
  C        15.6421997629       18.9267088122       12.0887419997
  C        16.8719386169       18.9662286540       11.4352552566
  C        17.8560513600       17.9877687483       11.6822204636
  C        17.5894082329       17.0000587943       12.6478806252
  C        16.3617723141       16.9600728005       13.3050863503
  C        19.1231862643       17.9635203477       10.9124196514
  C        19.0976681496       17.9385636507        9.4908967032
  C        17.8770583467       17.8298266222        8.7514520621
  C        28.8061140199       14.0894942012        2.3932641903
  C        28.1909031947       12.9169732747        3.0806612042
  C        28.9138265345       12.1777847122        4.0284062780
  C        28.3153166198       11.1020859080        4.6791326429
  C        26.9792696264       10.7436508495        4.4083251214
  C        26.2777651278       11.4640040128        3.4248645251
  C        26.8747507681       12.5388669767        2.7708303032
  C        26.3114104346        9.6641737216        5.1708484921
  C        26.3050102213        9.6883729047        6.5920613054
  C        26.8158119582       10.7983538523        7.3371985943
  C        32.1784932162       21.2429269240        2.1496646775
  C        32.7742723635       22.4092341441        2.8662529742
  C        32.0281902128       23.0836418256        3.8448450959
  C        32.5998035229       24.1214417882        4.5742982277
  C        33.9331574624       24.5123624677        4.3458623867
  C        34.6616442622       23.8569368215        3.3353394139
  C        34.0923837354       22.8135528916        2.6078146720
  C        34.5631998210       25.5861227561        5.1471194995
  C        34.5568189849       25.5566741137        6.5688984004
  C        34.0476755447       24.4418440040        7.3072990077
  C        25.6962240196        8.6108302830        7.3121982768
  C        25.6714421522        8.6145425090        4.4990223018
  C        32.1091025261       21.2315008500       13.8815047143
  C        32.6991449156       22.3837783541       13.1401026466
  C        31.9632866071       23.0475471341       12.1461199251
  C        32.5457887430       24.0736961275       11.4062228979
  C        33.8770980528       24.4674437137       11.6436542689
  C        34.5951376214       23.8192769448       12.6670970550
  C        34.0181801080       22.7863922222       13.4011026792
  C        34.5178954381       25.5466137273       10.8574516321
  C        34.5318358761       25.5370657501        9.4354814900
  C        34.0342385528       24.4330635168        8.6740527835
  C        40.6223727517       17.0983407804        8.7585557964
  C        40.5989142272       17.1093011274       11.5681875549
  C        28.7470125523       14.0734428374       13.8047264549
  C        28.1424676981       12.9264981918       13.0640200608
  C        28.8841934707       12.2166493704       12.1071204753
  C        28.3042031928       11.1582656370       11.4113576523
  C        26.9674773916       10.7806239944       11.6499424649
  C        26.2425841644       11.4776438207       12.6346666650
  C        26.8199564645       12.5378552870       13.3303169787
  C        26.3267948370        9.6871316387       10.8800910238
  C        26.3161594184        9.6992034698        9.4584808451
  C        26.8201068757       10.8041214094        8.7029415211
  C        18.1354074471        3.1809583459        2.3222402302
  C        17.4061315629        4.2782646938        3.0208512857
  C        16.3904280800        3.9999591706        3.9483941585
  C        15.7427692892        5.0399779574        4.6119100300
  C        16.0947644832        6.3836738610        4.3722238052
  C        17.0841172612        6.6531557695        3.4084207252
  C        17.7331182346        5.6157670509        2.7433539030
  C        15.4705257047        7.4914153186        5.1352766129
  C        15.4858000386        7.4907402431        6.5569885597
  C        16.1872416203        6.4970569002        7.3101740725
  C        42.9459031816       31.8595139877        2.0780006370
  C        43.6462765158       30.7718541117        2.8220081270
  C        44.5919752592       31.0931661919        3.8079144519
  C        45.1976756273       30.0876134206        4.5555813631
  C        44.8710600768       28.7345763969        4.3408693000
  C        43.9450287079       28.4202431277        3.3278525764
  C        43.3362032030       29.4253921408        2.5798227945
  C        45.4886867999       27.6552788969        5.1440375557
  C        45.4928532306       27.6808822057        6.5657295415
  C        44.8056980647       28.6888923173        7.3123378541
  C        14.8568835653        8.5632607030        7.2693545481
  C        14.8753355855        8.5632344662        4.4566862497
  C        42.9464353753       31.9615728501       13.8038811128
  C        43.6916599158       30.8854518410       13.0903320616
  C        44.6563710131       31.1913597139       12.1181561878
  C        45.2779305002       30.1717774062       11.4004479849
  C        44.9540460047       28.8214732789       11.6379845522
  C        44.0203965491       28.5237969234       12.6485968364
  C        43.3920956515       29.5405625752       13.3607462983
  C        45.5631577711       27.7240882682       10.8527607634
  C        45.5333890310       27.7173555460        9.4314664978
  C        44.8269829828       28.7075323865        8.6785221162
  C        35.1384662803       26.6292149602        8.7308707736
  C        35.1281968633       26.6049830495       11.5407013665
  C        18.1485617886        3.2469690671       13.7015074379
  C        17.4299681717        4.3438511069       12.9922571440
  C        16.4148081608        4.0525800801       12.0686408823
  C        15.7665128515        5.0832261109       11.3932566590
  C        16.1211338379        6.4284553354       11.6160583263
  C        17.1124436327        6.7118250950       12.5733867022
  C        17.7601014232        5.6829055472       13.2531515428
  C        15.4907151425        7.5241822116       10.8436025389
  C        15.4966874755        7.5075939868        9.4224690819
  C        16.1934090458        6.5058571187        8.6757781912
  H        10.6725682091       12.4658422483       11.8993844690
  H        11.6949181242       10.5510663245       10.6574980398
  H        15.3918612426       11.1688462846       12.7671046797
  H        14.3513678140       13.0716298329       14.0122383986
  H        13.3767754839       11.6314981215        9.1962495841
  H        50.3227909099       22.7480670470       11.9813170886
  H        49.3197094744       24.6225730285       10.6753771094
  H        45.6427263524       24.1619554366       12.8592976645
  H        46.6635990993       22.2909881203       14.1675425727
  H        47.6300447336       23.5759559156        9.2410973085
  H        14.8721764227        8.5883391187       12.6034852013
  H        50.2870292313       22.7023580709        4.0657454223
  H        49.2691101622       24.5752311383        5.3657846963
  H        45.6108692966       24.1098504475        3.1506201003
  H        46.6529840461       22.2545764272        1.8362650423
  H        47.6079589120       23.5518836577        6.8020012207
  H        40.6642786194       17.1292136996        3.4277333991
  H        48.6873529815       14.0949422918       15.7950584806
  H        10.6816170289       12.4666847379        4.0985110281
  H        11.6900662640       10.5248491220        5.3022649065
  H        15.3938996704       11.1592814075        3.2107248630
  H        14.3652516660       13.0875999044        1.9954505889
  H        13.3765551648       11.6225286131        6.7582427029
  H        47.9303380769       14.2185333329        1.7158081216
  H        47.7801783960       14.3743825610       14.4905728933
  H        49.0844966061       18.5527728071        2.8725977824
  H        10.4164000001       14.1342890168        0.0037235418
  H        24.4850449151        3.0274851202       11.9129881765
  H        25.6294351442        4.8853817296       10.6887001900
  H        23.2582299908        7.7546666485       12.8436389737
  H        22.1319907969        5.8869144997       14.0692485643
  H        23.8157722324        5.7919858079        9.2650743714
  H        36.3772566599       32.1863544323       11.9612525419
  H        35.2563626396       30.3596011502       10.6806744005
  H        37.5208317520       27.4396293657       12.8823612583
  H        38.6217774971       29.2789250730       14.1717701866
  H        37.0303375340       29.4488902652        9.2667622155
  H        25.7488558821        8.6105464036       12.6471835607
  H        36.4573255506       32.2416733655        4.1176709272
  H        35.3455599655       30.4232389666        5.4126506341
  H        37.5251815163       27.4875782681        3.1457404443
  H        38.6119269750       29.3176352301        1.8383128591
  H        37.0470990052       29.4687032785        6.8286769764
  H        46.1093699303       26.5876657224        3.3906989266
  H        44.6681367622       35.1161168668       15.8088663788
  H        24.4322396065        3.0402199609        4.0950667258
  H        25.5617501670        4.8800184647        5.3473204387
  H        23.1623651416        7.7680618997        3.2498397687
  H        22.0446134038        5.9161280016        1.9975235149
  H        23.7877988799        5.7942582027        6.8268107661
  H        44.9534841818       34.3901270941        1.7001300286
  H        44.9013431446       34.2066097588       14.4855979046
  H        40.6655875260       33.2088510137        2.8581374911
  H        23.1504952233        1.9576917542        0.0105203893
  H        25.8420845006       19.6271890857       11.8879134395
  H        23.6687821937       19.6841201686       10.6582581928
  H        22.3402788375       16.2399033541       12.8656665296
  H        24.5137633565       16.2042525280       14.0970719535
  H        23.7250249238       17.6719074922        9.2392083655
  H        35.1609313204       15.4238685149       12.0122415519
  H        37.2802328951       15.3855025088       10.6861436366
  H        38.6850859207       18.8198706174       12.8604762250
  H        36.5591538146       18.8447898262       14.1809289527
  H        37.2305507903       17.3809074294        9.2366710013
  H        20.3638181576       17.9878842300       12.6660049311
  H        35.2199460947       15.4390063360        4.0439008983
  H        37.3536576841       15.3829586713        5.3468374040
  H        38.7331674835       18.8533366429        3.2133603098
  H        36.5953054254       18.8902259289        1.9095170291
  H        37.2503489787       17.3875944222        6.7921819713
  H        35.1474601583       26.6827929173        3.3997251498
  H        28.5070505544       21.0904657520       15.9749900493
  H        25.7412901494       19.6416999893        4.1456937714
  H        23.5592937812       19.6932662671        5.3661477439
  H        22.3021274063       16.1675660345        3.2485723460
  H        24.4859887006       16.1360717331        2.0268272165
  H        23.7004925070       17.6567200959        6.7988418131
  H        29.0081568476       21.7195558566        1.7673262916
  H        29.1376272585       21.7566689746       14.6081446744
  H        32.1052425933       18.5832141411        2.9786199157
  H        27.3940017305       19.0677724902        0.0872941093
  H        14.8484300072       19.6493026343        4.1442890880
  H        17.0100217257       19.6952457715        5.3890002769
  H        18.2988799047       16.1832452300        3.2671010481
  H        16.1335343549       16.1532393904        2.0214657103
  H        16.9201384685       17.7040245000        6.8594735659
  H        46.0956225350       15.4399770645        4.0685833465
  H        43.9731375620       15.3867498453        5.3822300478
  H        42.5677833893       18.8351887359        3.2282930787
  H        44.6895313641       18.8615935772        1.9028362978
  H        44.0341427005       17.3181854513        6.8517725546
  H        20.2859059105       17.9164535495        3.4285873735
  H        46.0381090358       15.3755460654       12.0436541178
  H        43.9056746798       15.3084703153       10.7498711139
  H        42.5188039445       18.7844711759       12.8699944325
  H        44.6575572699       18.8372394478       14.1650239972
  H        44.0135840797       17.2897035268        9.2911478907
  H        46.1994516499       26.6827784280       12.6182606238
  H        52.7413122155       21.0627412283        0.1998210785
  H        14.8812660121       19.6800311474       11.8969853890
  H        17.0828027610       19.7578934088       10.7194825416
  H        18.3404606189       16.2383209491       12.8468274889
  H        16.1410595934       16.1843518462       14.0342944229
  H        16.9440189608       17.7231622547        9.2965230283
  H        52.3228769407       21.6734718277       14.2890634317
  H        52.0136395462       21.7023980589        1.5008197970
  H        49.0677925043       18.6077453301       13.1988275440
  H        13.2477978100       19.0162194501       15.9724793201
  H        29.9415073616       12.4624966485        4.2423327204
  H        28.8777929256       10.5269307758        5.4114024091
  H        25.2452903695       11.1971947169        3.2086618511
  H        26.3314100921       13.1164129817        2.0269299945
  H        27.1804307743       11.6661210894        6.7959376033
  H        31.0047692565       22.7670060315        4.0304013791
  H        32.0164515163       24.6429423719        5.3299496261
  H        35.6937581946       24.1497501934        3.1538568592
  H        34.6606280227       22.2810110609        1.8486837017
  H        33.6910034250       23.5727390368        6.7618026674
  H        25.6977024807        8.5960138453        3.4109134085
  H        30.9367179577       22.7414178090       11.9586298979
  H        31.9691626830       24.5876266042       10.6402653370
  H        35.6253249572       24.1136908167       12.8565496567
  H        34.5779078217       22.2630249035       14.1728001570
  H        33.6662344807       23.5572718848        9.2011639260
  H        40.5897043930       17.0743812692       12.6559292953
  H        32.5170796280       14.1463201045        0.2628324727
  H        29.9189586446       12.5008826749       11.9298172728
  H        28.8869397158       10.6042394298       10.6785408312
  H        25.2081748400       11.1990307175       12.8252556745
  H        26.2570830627       13.0915168791       14.0781051876
  H        27.1864712006       11.6766615258        9.2357505634
  H        33.3016342868       14.2110024894       14.4433744099
  H        33.4089563568       14.4041957363        1.6135828568
  H        32.1566527540       18.5333584629       13.1912221567
  H        30.2302424899       14.1917283850        0.0676584740
  H        16.1183019293        2.9634668812        4.1347813917
  H        14.9533076040        4.8206237881        5.3275668098
  H        17.3665881260        7.6860172781        3.2152958522
  H        18.5150942606        5.8183557482        2.0154274276
  H        16.7537182360        5.7396593717        6.7766715515
  H        44.8283856618       32.1402421154        3.9819626432
  H        45.9376613888       30.3413347729        5.3114201382
  H        43.6821095243       27.3781971418        3.1579334924
  H        42.5993758436       29.1900743959        1.8153510893
  H        44.2302698012       29.4365943753        6.7740152710
  H        14.8515545584        8.5464572704        3.3684658538
  H        44.8999819176       32.2340430412       11.9268092756
  H        46.0249259417       30.4129990127       10.6472971834
  H        43.7633182024       27.4840754667       12.8400472104
  H        42.6454621446       29.3177754321       14.1190665570
  H        44.2684030210       29.4703592602        9.2131185239
  H        35.0867130228       26.6174662947       12.6282027873
  H        36.6049829505       35.1340072028        0.1857732543
  H        16.1437588773        3.0129997883       11.8988766830
  H        14.9742066896        4.8563784161       10.6831523119
  H        17.3958786287        7.7472959051       12.7503554295
  H        18.5429167760        5.8933286486       13.9779824982
  H        16.7647251980        5.7555403528        9.2142295998
  H        36.2783464523       34.4826235451       14.2680942541
  H        36.3805343284       34.2093325086        1.5049853767
  H        40.5800374964       33.2024120754       13.1485470369
  H        17.4706287967        1.9472691489       15.9690277577
  H        29.1294284455       19.4879672233        4.5542494246
  H        30.3714096449       19.7176314569       11.7518494337
  H        30.7963800683       15.4454622135       11.8011443844
  H        31.0418923256       15.5094706579        4.4254629137
  H        28.1576754496       18.2032019598        6.6771966938
  H        29.1613290234       15.4794524717        6.4262279929
  H        31.9301337364       18.5687503562        9.5840639707
  H        32.2303915787       16.2666458555       10.2949149417
  H        28.9163484248       16.1015552262        9.3368488029
  H        18.8532065618        0.8689482205        4.3404279982
  H        40.5278631467       35.2291919233       11.9469946463
  H        42.3237373407       34.4186144025       11.5856288249
  H        22.0877595766        0.6920234120        4.3566885773
  H        11.5967219355       18.7131277936        4.3877470515
  H        52.2650221724       18.4313248036       11.6720002279
  H        49.2551484618       16.4771139531       11.5794621156
  H        10.1502692707       15.7983728264        4.2980732327
  H        50.8502733345       17.6924583549       11.9490978730
  H        10.0461810699       17.3946639524        4.0570413576
  H        20.2143388094        0.0021626726        4.0471932304
  H        39.1835621471       36.1244144408       11.6812226284
 Ni        30.0092561731       17.5825711407       10.9936792097
 Ni        31.0758461859       16.5175449910        7.7452922010
 Ni        29.9279488524       18.5020941949        8.3279957654
 Ni        30.2701954974       17.5244549094        5.1693433243
  O        10.6499616947       14.3650719525       13.4807411347
  O        12.6131965291       14.6575278457       14.5787956632
  O        49.1480450587       16.8459254517       15.9845797225
  O        50.3503046739       20.9357473416       13.6429101496
  O        48.3485930342       20.5932952035       14.6607721856
  O        11.0518471226       17.0538595203       14.4956316754
  O        50.3210062313       20.8816217340        2.4119448065
  O        48.3467462099       20.5867286229        1.3322278159
  O        49.5438742681       18.2484441589        2.0732576084
  O        12.3592133358       18.6246639689        0.0047778320
  O        48.6932780218       14.1485510166       14.7462428549
  O         8.2100302398       14.2102741277        1.3275473863
  O        10.7354608065       14.5067088128        2.6694283318
  O        12.5718567934       14.5828366049        1.3335639251
  O        22.8446660027        2.0431516822       13.4820571745
  O        21.6058557580        3.5925817983       14.5842413614
  O        42.0581753323       34.1373407458       15.9738869259
  O        37.9818773564       33.1385161222       13.5676224477
  O        39.2184311355       31.5766128565       14.6618620657
  O        20.3084189175        1.0396138591       14.4969223264
  O        38.0248397112       33.1860781497        2.4201596362
  O        39.2192784511       31.5839228400        1.3314443998
  O        40.6522950735       33.7693668280        2.0653838566
  O        18.2553875845        1.3762026365        0.0019274896
  O        44.6222290818       35.1005219781       14.7536407868
  O        24.2053942171        0.0000306546        1.3259196542
  O        22.7529354805        2.0577529656        2.5889109077
  O        21.6243437019        3.5960045269        1.3475191150
  O        27.4958871228       18.7494673096       13.4960534028
  O        26.7673479938       16.9290085864       14.6522323416
  O        30.6687351322       19.4076799937        0.0732619692
  O        33.5841927758       16.2785438268       13.6587011078
  O        34.2765796989       18.1687015475       14.7284592171
  O        29.5760241716       17.0664873133       14.5712444983
  O        33.6223064100       16.3301150045        2.4147669424
  O        34.3061411195       18.2486185705        1.4099066638
  O        31.6529290400       18.3130105150        2.1620800401
  O        30.3251497177       15.1581288013        0.0858655555
  O        28.5523444286       21.0355775589       14.9017200542
  O        28.5129874092       20.9594329079        1.4165995265
  O        27.4521019077       18.6790868857        2.6623543686
  O        26.6936013138       16.9275316211        1.4173290428
  O        13.1483660974       18.6930128184        2.5925100616
  O        13.9193820165       16.9163324765        1.4102986880
  O        50.5964061515       19.3502790464        0.0253917361
  O        47.6847451954       16.3263961953        2.4219585718
  O        46.9521950887       18.1757728746        1.3295926238
  O        11.0700502990       17.0155008597        1.4946766281
  O        47.6762592666       16.3355155852       13.6482392545
  O        46.9266726820       18.2358189084       14.6591496380
  O        49.5687963226       18.3177108658       13.9771284219
  O        10.3187818228       15.1001086664        0.0021503307
  O        52.6707779864       21.0278778574        1.2469205027
  O        12.1468526587       20.8912267992       14.6681554240
  O        13.1083626764       18.6136827610       13.3205101582
  O        13.9575419559       16.9872127213       14.6601038173
  O        29.9900707276       14.4378401674        2.7315520956
  O        28.0879232212       14.6540206321        1.4969538431
  O        32.1419523483       16.8577526466        0.0804012886
  O        30.9655396027       20.9539618317        2.4132654379
  O        32.9470550232       20.6018555304        1.3446406013
  O        29.5673980965       17.0758395821        1.5798913901
  O        30.8771765108       20.9479992867       13.6564988490
  O        32.8800166221       20.5857193610       14.6628972893
  O        31.6839701934       18.2500870167       13.9890565717
  O        28.2825596069       18.6761953895        0.0845330103
  O        32.4945207498       14.2113967110        1.3347261718
  O        32.4044022158       14.2159616969       14.8165624568
  O        29.9237228899       14.4521506396       13.4711542523
  O        28.0454329464       14.5849900786       14.7422023387
  O        17.8892304537        1.9666524177        2.6679236565
  O        18.9562277413        3.5271500079        1.4130686398
  O        39.1686952752       34.1389036783        0.0023191601
  O        43.2802733399       33.0589537533        2.3368214358
  O        42.0346024675       31.5064206114        1.2467361238
  O        20.3176373699        1.0367529256        1.4852948321
  O        43.2760911571       33.1825754700       13.5697937864
  O        42.0053104615       31.5841105930       14.5778914979
  O        40.5790562707       33.7750005531       13.9307348369
  O        22.3672716291        1.3846336496        0.0030121907
  O        36.6727345908       35.0998005896        1.2383966161
  O        16.4454949850        0.0643383490       14.6632107666
  O        17.9364563016        2.0434222612       13.3212606887
  O        18.9190606027        3.5931584162       14.6608132135
  O        29.7796623873       19.0519886003       12.1531763839
  O        29.7479576545       18.9825803736        3.9967997974
  O        31.3022648236       16.2637329881       11.9814610418
  O        31.3535392651       16.3255831888        3.9815659747
  O        32.5292420849       16.3372379179        9.3424668465
  O        29.7756177960       16.5519917848        9.3939121237
  O        30.0753192522       15.7562291069        6.2536863528
  O        31.9326713234       17.6540738566        6.4042127340
  O        31.0444871322       18.8908184259        9.8303222056
  O        29.0683619037       18.5389772806        6.6663619396
  O        39.4567822174       35.2438506036       11.9968500683
  O        19.1411508278        0.0045046929        3.9956845985
  O        41.9696664013       35.1727448859       12.0820931114
  O        21.6913321479       -0.0693751343        3.9010481236
  O        51.3652049713       18.6142986802       12.0002853915
  O        10.7509919018       18.7471954475        3.9100406462
  O        50.0795974540       16.4127944086       12.0866618310
  O         9.5244206171       16.4831521985        3.9963344400
 Zr         9.2976138813       16.0527603995       14.1774646703
 Zr        49.8373172348       16.0065922953        1.7513502339
 Zr        22.0730962715        0.0296955030       14.1840114085
 Zr        42.4607600625       35.1532866575        1.8060179101
 Zr        29.5941676902       19.1110931173       14.3079199600
 Zr        29.5723420818       19.1757655064        1.8756359183
 Zr        11.0384806919       19.0519833340        1.8328859950
 Zr        11.0445584844       19.1548421687       14.2456486324
 Zr        31.3536461128       16.0947231157        1.8826566425
 Zr        31.4024929384       16.0286564817       14.2895522425
 Zr        18.6009165043       -0.0015857661        1.7684679294
 Zr        18.5062922041       -0.0077825697       14.2086483291
 Zr        12.3029797109       16.3236751282       15.9851265710
 Zr        48.6174268805       18.8333981136        0.0151135751
 Zr        20.3149802320        2.4731815589       15.9853160077
 Zr        40.6432130386       32.6869166074       15.9732543788
 Zr        28.3447495376       16.3449870819        0.0905744490
 Zr        32.6314346164       18.8415498844        0.0683284306
  H        32.5561397904       17.1566107491        5.8413193424
  H        33.4926553531       16.4470285359        9.3361311863
  H        28.9563890056       16.8811104191       11.6876866896
