     574
 i =      241, E =     -4778.8415280455
  C        11.8589204282       14.0535497245       13.7364144114
  C        12.4565568755       12.8908274956       13.0179367811
  C        11.7046996864       12.1713367629       12.0768376332
  C        12.2812031159       11.1091943229       11.3845035173
  C        13.6220194677       10.7400235305       11.6118045974
  C        14.3554366258       11.4442664732       12.5845678307
  C        13.7824267201       12.5092029408       13.2760288878
  C        14.2615363497        9.6492919066       10.8384885960
  C        14.2568626020        9.6571940897        9.4168035694
  C        13.7437052757       10.7593649073        8.6629616437
  C        49.1270546326       21.2330833698       13.8744720531
  C        48.5503469159       22.4012020169       13.1474663154
  C        49.3003213352       23.0683608267       12.1663406255
  C        48.7334293392       24.1075783898       11.4331925380
  C        47.4029852263       24.5094096793       11.6619864233
  C        46.6721277731       23.8607270039       12.6756874501
  C        47.2345331618       22.8157590194       13.4049817227
  C        46.7726311154       25.5870545678       10.8647301433
  C        46.7614508528       25.5573863161        9.4429706531
  C        47.2613647063       24.4422858758        8.6994737541
  C        14.8607051341        8.5708045996        8.7035546667
  C        14.8922567416        8.5973525810       11.5151735689
  C        49.1134108759       21.2034266473        2.1504379456
  C        48.5280170414       22.3648505346        2.8776831922
  C        49.2671632432       23.0253386058        3.8707863670
  C        48.6908583142       24.0599282130        4.6022464380
  C        47.3605612804       24.4569405158        4.3638174902
  C        46.6402627351       23.8122776725        3.3400572290
  C        47.2137900206       22.7763547063        2.6082701574
  C        46.7220472768       25.5318889515        5.1548295594
  C        46.7336145932       25.5281752685        6.5765375508
  C        47.2490643339       24.4289702008        7.3329238917
  C        40.6352357052       17.1492014878        7.3288812723
  C        40.6570851525       17.1853113006        4.5200868506
  C        11.8832043535       14.0866590620        2.2906709583
  C        12.4727280809       12.9111230586        2.9951319611
  C        11.7151234066       12.1773980785        3.9207509911
  C        12.2818749893       11.0950127234        4.5891408827
  C        13.6209430207       10.7219355180        4.3577265273
  C        14.3591331306       11.4381579950        3.3976079524
  C        13.7935204043       12.5192548950        2.7249589287
  C        14.2545795510        9.6251207353        5.1280246734
  C        14.2531227658        9.6449446059        6.5498520055
  C        13.7432759042       10.7539096900        7.2969198473
  C        22.5104811540        3.2445968269       13.7474280904
  C        23.2216871464        4.3510576066       13.0466351544
  C        24.2155077963        4.0733680229       12.0965589474
  C        24.8389210750        5.1147001153       11.4140628193
  C        24.4840309733        6.4557504257       11.6614254040
  C        23.5183630171        6.7249614495       12.6483360765
  C        22.8902678637        5.6854378324       13.3291274366
  C        25.0871170294        7.5633667422       10.8857827755
  C        25.0603466357        7.5554626105        9.4642627614
  C        24.3566090381        6.5572230298        8.7180597053
  C        38.3034186444       31.9301816287       13.8440297223
  C        37.5756004380       30.8401605743       13.1338725927
  C        36.6153777141       31.1428694031       12.1565702332
  C        36.0005546744       30.1216178478       11.4377362379
  C        36.3314784391       28.7733095136       11.6754683918
  C        37.2620806610       28.4779188753       12.6891858484
  C        37.8810505361       29.4978777105       13.4066824587
  C        35.7304049742       27.6811034622       10.8786138738
  C        35.7603704806       27.6967127811        9.4574922483
  C        36.4668480235       28.6987189081        8.7202956657
  C        25.6853768298        8.6238783971        8.7440564668
  C        25.6820820116        8.6398063918       11.5565122173
  C        38.3291035203       31.9626656481        2.1610321743
  C        37.6078594458       30.8893283910        2.9028686642
  C        36.6796848666       31.1979154064        3.9089320799
  C        36.0704062384       30.1791265491        4.6386361041
  C        36.3752786624       28.8268663017        4.3852560134
  C        37.2809113231       28.5282014800        3.3490145711
  C        37.8924051015       29.5434829534        2.6207279722
  C        35.7680618806       27.7276660872        5.1694046381
  C        35.7798942990       27.7204822125        6.5912166914
  C        36.4758809038       28.7102978494        7.3538310898
  C        46.1355449616       26.6207753892        7.2866858055
  C        46.0881865927       26.5803167773        4.4787893019
  C        22.4599517216        3.2558922506        2.2625581067
  C        23.1518617802        4.3656079205        2.9853530815
  C        24.1521336103        4.0814670501        3.9285572308
  C        24.7777396349        5.1131870680        4.6241200843
  C        24.4232107402        6.4583851924        4.3987331792
  C        23.4460647599        6.7357824792        3.4241090403
  C        22.8156223742        5.7042902631        2.7292257236
  C        25.0520555410        7.5574497159        5.1727215261
  C        25.0426050714        7.5521512261        6.5953496778
  C        24.3461275246        6.5569775673        7.3514386423
  C        26.6289639774       17.8553222659       13.7759451819
  C        25.3239789269       17.8895329838       13.0460843394
  C        25.0761961957       18.8658863804       12.0688786345
  C        23.8613169908       18.8854049650       11.3858432312
  C        22.8592095101       17.9305602653       11.6552817767
  C        23.1063124552       16.9748892221       12.6589638707
  C        24.3221937182       16.9510785102       13.3411145601
  C        21.5841234723       17.9137449266       10.8935170476
  C        21.5812167684       17.8801934812        9.4709010559
  C        22.7847180789       17.7432004711        8.7090536090
  C        34.4371694881       17.1962000153       13.9140583065
  C        35.7296074859       17.1439743738       13.1691846486
  C        35.9326127626       16.1782717874       12.1707495332
  C        37.1130725107       16.1679025750       11.4325208236
  C        38.1218790691       17.1206830840       11.6748337146
  C        37.9212831994       18.0658729149       12.6985847190
  C        36.7380315803       18.0827170284       13.4328965585
  C        39.3770380043       17.1319591073       10.8904960772
  C        39.3748880694       17.1554529151        9.4693743852
  C        38.1690411576       17.2829625403        8.7104910482
  C        20.3338490852       17.9010189162        8.7636826567
  C        20.3591583585       17.9260025055       11.5765081146
  C        34.4782112299       17.2481142857        2.1838571054
  C        35.7815040048       17.1795519729        2.9084122268
  C        35.9986303059       16.1957121315        3.8845252634
  C        37.1836539282       16.1823591977        4.6147160966
  C        38.1795540252       17.1517784740        4.3867826608
  C        37.9688709231       18.1107840686        3.3789260919
  C        36.7813217938       18.1294674784        2.6522368439
  C        39.4255299585       17.1719541753        5.1831202941
  C        39.3997202474       17.1773338609        6.6037583704
  C        38.1808044095       17.2918155177        7.3440180550
  C        35.1484983412       26.6419879023        7.2952838729
  C        35.1767383790       26.6577935527        4.4863434427
  C        26.5713865678       17.8266478601        2.3297040441
  C        25.2553862504       17.8671085586        3.0350341517
  C        24.9880086658       18.8657777947        3.9834975106
  C        23.7706927993       18.8824885742        4.6587442598
  C        22.7905785915       17.9013252389        4.4076402772
  C        23.0515503595       16.9287578914        3.4256016421
  C        24.2701721772       16.9091742035        2.7498407870
  C        21.5272109510       17.8761303114        5.1810100518
  C        21.5522006332       17.8598164069        6.6023909598
  C        22.7705536553       17.7342232010        7.3427901580
  C        14.0466019274       17.8274226229        2.2950131364
  C        15.3499580742       17.8798999581        3.0216343246
  C        15.6077307542       18.8773963199        3.9749938941
  C        16.8164355951       18.8922477974        4.6685402291
  C        17.8018560197       17.9125364514        4.4310161058
  C        17.5487541176       16.9396371566        3.4454653199
  C        16.3395886636       16.9199404721        2.7536847328
  C        19.0712438888       17.8894776577        5.1991513771
  C        19.0711828328       17.8826647856        6.6216583007
  C        17.8649374744       17.7858900436        7.3843870910
  C        46.8073392650       17.2210135178        2.1651711546
  C        45.5200224372       17.1668091401        2.9149828279
  C        45.3123804729       16.1931555763        3.9038807712
  C        44.1326621616       16.1839944850        4.6430959216
  C        43.1323729543       17.1486844826        4.4141176722
  C        43.3378101974       18.1027932858        3.3996315548
  C        44.5180725460       18.1158563682        2.6616556032
  C        41.8794877116       17.1661856376        5.2014087369
  C        41.8831859286       17.1627511822        6.6229089099
  C        43.0911460121       17.2526584000        7.3837469846
  C        20.3186060360       17.8890409147        7.3287947987
  C        20.2946976468       17.8702019248        4.5153909861
  C        46.7856321504       17.2303186146       13.8859838307
  C        45.4807911465       17.1236035113       13.1737836190
  C        45.2619406517       16.1277973565       12.2100870369
  C        44.0734445464       16.1035307663       11.4846132388
  C        43.0752061433       17.0716458908       11.7070517451
  C        43.2833633600       18.0355171342       12.7109794959
  C        44.4732183180       18.0666042478       13.4308879727
  C        41.8305706164       17.0998655355       10.9084654917
  C        41.8584484399       17.1264236821        9.4879935369
  C        43.0794193658       17.2329763232        8.7500598644
  C        46.1533050026       26.6372049256        8.7212383084
  C        46.1627800136       26.6562278759       11.5308620351
  C        14.0470872006       17.8316033404       13.7033124290
  C        15.3691218899       17.9044140210       13.0141191507
  C        15.6443357966       18.9151507184       12.0807550500
  C        16.8743832941       18.9492204651       11.4272492653
  C        17.8580729325       17.9717836487       11.6806593919
  C        17.5899555624       16.9909128823       12.6529040677
  C        16.3619463919       16.9560599582       13.3097200440
  C        19.1255072909       17.9406817393       10.9111200397
  C        19.0994932143       17.9079406807        9.4897098726
  C        17.8788885274       17.7974880056        8.7503869105
  C        28.8060672247       14.0924031208        2.3936063896
  C        28.1901690503       12.9212563342        3.0833197011
  C        28.9109565179       12.1828727710        4.0334130456
  C        28.3108802460       11.1076043652        4.6836629286
  C        26.9756010045       10.7486440404        4.4094796447
  C        26.2762996682       11.4686114693        3.4243187479
  C        26.8746406218       12.5430983458        2.7710870365
  C        26.3056824487        9.6692783432        5.1701785341
  C        26.2931951079        9.6954947117        6.5911895946
  C        26.8008449221       10.8064557302        7.3372191730
  C        32.1787468836       21.2433169721        2.1480670721
  C        32.7746538195       22.4100260982        2.8657633129
  C        32.0250553414       23.0905787409        3.8375303932
  C        32.5961987826       24.1286738011        4.5672802390
  C        33.9324190315       24.5138730647        4.3453557903
  C        34.6645651901       23.8522676244        3.3416958776
  C        34.0957284177       22.8085254929        2.6141343201
  C        34.5616574993       25.5884821719        5.1460925398
  C        34.5539298296       25.5597973290        6.5675559200
  C        34.0415453557       24.4463891663        7.3058508642
  C        25.6809229898        8.6188981566        7.3096634679
  C        25.6686489843        8.6189017595        4.4966875302
  C        32.1083460000       21.2313786532       13.8825263837
  C        32.7006587316       22.3824526372       13.1384578512
  C        31.9612796042       23.0499852028       12.1494462517
  C        32.5427492565       24.0768244159       11.4090195449
  C        33.8763604311       24.4668189445       11.6411658530
  C        34.5980797224       23.8135751982       12.6584097977
  C        34.0218942958       22.7803465042       13.3930466051
  C        34.5161377448       25.5475398964       10.8560314067
  C        34.5290976654       25.5395626083        9.4343657590
  C        34.0284347834       24.4373297699        8.6724233709
  C        40.6223635484       17.1339496813        8.7627094901
  C        40.5991025552       17.1209232881       11.5720041572
  C        28.7335354101       14.0712726214       13.8070361896
  C        28.1200606475       12.9343637006       13.0601201250
  C        28.8653802653       12.2072996436       12.1194962157
  C        28.2808600535       11.1519387047       11.4232272427
  C        26.9363896609       10.7944720547       11.6469534781
  C        26.2061239098       11.5101619552       12.6136577200
  C        26.7881547552       12.5682035745       13.3090604332
  C        26.2953624199        9.7003832781       10.8779948419
  C        26.2906953025        9.7102562671        9.4567358487
  C        26.7987503415       10.8144641997        8.7029366166
  C        18.1353719138        3.1811336893        2.3223238076
  C        17.4062205236        4.2783682247        3.0209200452
  C        16.3904736793        4.0001457046        3.9484670766
  C        15.7429028769        5.0402360892        4.6119230333
  C        16.0949420132        6.3839291258        4.3721750411
  C        17.0843381771        6.6532994120        3.4083767568
  C        17.7332689641        5.6158626849        2.7433401925
  C        15.4708114858        7.4916941481        5.1352529787
  C        15.4859239995        7.4908421445        6.5569621774
  C        16.1874304405        6.4971899964        7.3101324193
  C        42.9459700981       31.8595876195        2.0780123098
  C        43.6463794595       30.7719364494        2.8219695494
  C        44.5916809777       31.0932648444        3.8082568594
  C        45.1973919694       30.0877419536        4.5559527706
  C        44.8712690928       28.7346421110        4.3408473235
  C        43.9456911472       28.4202843338        3.3274065039
  C        43.3368721472       29.4254161714        2.5793597039
  C        45.4887881473       27.6553359359        5.1440689959
  C        45.4928152745       27.6808875754        6.5657640893
  C        44.8056381900       28.6888683243        7.3123979604
  C        14.8570826065        8.5633861599        7.2693466827
  C        14.8757030905        8.5635839789        4.4566881621
  C        42.9465016940       31.9616542801       13.8038270033
  C        43.6918573763       30.8855433921       13.0904538478
  C        44.6561905253       31.1914539091       12.1178966487
  C        45.2777706456       30.1718801938       11.4002021017
  C        44.9543229658       28.8215356830       11.6381366144
  C        44.0211785841       28.5238553615       12.6492326539
  C        43.3928661714       29.5406189464       13.3613683379
  C        45.5632576100       27.7241223257       10.8528414059
  C        45.5333798280       27.7173784623        9.4315452120
  C        44.8269125249       28.7075023210        8.6785849155
  C        35.1372991830       26.6307021935        8.7298552956
  C        35.1276771158       26.6050700951       11.5395433802
  C        18.1485020766        3.2470961735       13.7014525626
  C        17.4299900640        4.3438804717       12.9921988516
  C        16.4147866771        4.0526746572       12.0685852608
  C        15.7666219857        5.0833967494       11.3932174973
  C        16.1213571744        6.4286147327       11.6159990470
  C        17.1127626219        6.7118797029       12.5732655097
  C        17.7603088894        5.6829192734       13.2530496128
  C        15.4909546098        7.5243526477       10.8435705738
  C        15.4968649990        7.5076816790        9.4224458404
  C        16.1935772124        6.5059504724        8.6757371552
  H        10.6723773787       12.4650160816       11.9002022224
  H        11.6948755764       10.5502682782       10.6583346158
  H        15.3927539972       11.1703704204       12.7657069507
  H        14.3521378104       13.0730866664       14.0107601675
  H        13.3768059908       11.6315105316        9.1963228031
  H        50.3229879906       22.7482258800       11.9815015232
  H        49.3199152712       24.6227551727       10.6755519825
  H        45.6427453031       24.1617403520       12.8590804503
  H        46.6636740475       22.2906827119       14.1673002643
  H        47.6300768053       23.5759870903        9.2411663112
  H        14.8727116752        8.5887064253       12.6034814123
  H        50.2871442286       22.7023274966        4.0658009071
  H        49.2692591127       24.5752368007        5.3658440618
  H        45.6109873226       24.1098207019        3.1507609610
  H        46.6531299340       22.2544319317        1.8364269547
  H        47.6079802712       23.5519175692        6.8020108363
  H        40.6647682079       17.1542506999        3.4322672378
  H        48.6872153325       14.0950461773       15.7949450747
  H        10.6814433736       12.4659709370        4.0977451916
  H        11.6900739392       10.5241485639        5.3014553602
  H        15.3948509977       11.1609738824        3.2122342627
  H        14.3660438400       13.0892226121        1.9970456882
  H        13.3766039026       11.6225821190        6.7582676304
  H        47.9302760893       14.2186707456        1.7160228855
  H        47.7802356171       14.3742958383       14.4903172371
  H        49.0850886490       18.5529217820        2.8728452902
  H        10.4163775542       14.1342635480        0.0038350363
  H        24.4771309256        3.0353601490       11.9035013602
  H        25.6098909086        4.8994312566       10.6774051836
  H        23.2369206603        7.7572739421       12.8456489878
  H        22.1223423648        5.8836466040       14.0728306202
  H        23.7932626207        5.8019518441        9.2582529311
  H        36.3761170497       32.1857512342       11.9624722254
  H        35.2554092174       30.3589309264       10.6816219799
  H        37.5245930271       27.4392443023       12.8790889721
  H        38.6254328782       29.2788035227       14.1684771997
  H        37.0331015905       29.4475609166        9.2664071727
  H        25.7139763280        8.6253873844       12.6444646321
  H        36.4568457146       32.2420902510        4.1164165304
  H        35.3451423594       30.4233961912        5.4116494773
  H        37.5277382575       27.4880158884        3.1469829747
  H        38.6144305604       29.3185031475        1.8395847322
  H        37.0501802882       29.4675999237        6.8279792318
  H        46.1098299269       26.5878227474        3.3907575552
  H        44.6682971522       35.1162446146       15.8088023175
  H        24.4299951532        3.0436573350        4.0980620783
  H        25.5569894667        4.8862847392        5.3485761290
  H        23.1609569558        7.7698455146        3.2412784810
  H        22.0452338383        5.9152598225        1.9911595939
  H        23.7742942566        5.8019183371        6.8198219536
  H        44.9539182741       34.3904886116        1.7003926950
  H        44.9017947119       34.2068297037       14.4855101162
  H        40.6662443831       33.2092212676        2.8583113325
  H        23.1501833995        1.9581936191        0.0102699160
  H        25.8507593474       19.6006657687       11.8599642660
  H        23.6734120510       19.6504995399       10.6355341985
  H        22.3459541603       16.2273737347       12.8760152312
  H        24.5222821501       16.2006157539       14.1023122315
  H        23.7245893042       17.6160261649        9.2384179601
  H        35.1492189103       15.4469647948       11.9845011903
  H        37.2711906801       15.4114999005       10.6667695733
  H        38.6928956401       18.8089440215       12.8892720090
  H        36.5654482174       18.8267678875       14.2071545151
  H        37.2301796990       17.4046088418        9.2429003955
  H        20.3674532464       17.9755302620       12.6639892147
  H        35.2194953839       15.4583800928        4.0642566272
  H        37.3532652135       15.4162542561        5.3682322045
  H        38.7325578021       18.8646779680        3.1990964434
  H        36.5952638139       18.8865767669        1.8940760528
  H        37.2509122049       17.4186563160        6.7972995849
  H        35.1481494089       26.6841094235        3.3986898048
  H        28.5091675895       21.0868604675       15.9714423915
  H        25.7469384469       19.6217137946        4.1724971357
  H        23.5631667987       19.6603942326        5.3904011053
  H        22.3028413525       16.1650865106        3.2250494651
  H        24.4880159636       16.1464186762        2.0060911175
  H        23.6997449313       17.6009523718        6.7968136404
  H        29.0049113626       21.7205716953        1.7682338738
  H        29.1358764358       21.7589669689       14.6080650610
  H        32.1004913802       18.5806774429        2.9776139337
  H        27.3968099695       19.0654756566        0.0856765402
  H        14.8506133777       19.6368343904        4.1571230792
  H        17.0126396232       19.6720626733        5.4012783061
  H        18.2991121365       16.1756335086        3.2525722955
  H        16.1329565114       16.1553474720        2.0086317796
  H        16.9215931657       17.6708730507        6.8585079789
  H        46.0921627775       15.4572879991        4.0856851855
  H        43.9704617006       15.4211291850        5.4013611769
  H        42.5730581077       18.8555891860        3.2201022619
  H        44.6946200662       18.8661430682        1.8945711123
  H        44.0336382652       17.3685313282        6.8562109441
  H        20.2877239102       17.9057508532        3.4274306912
  H        46.0392839642       15.3886681043       12.0301965676
  H        43.9062545457       15.3321214278       10.7360322916
  H        42.5166560590       18.7866321821       12.8890958400
  H        44.6569650641       18.8304731209       14.1823879936
  H        44.0129217138       17.3326886873        9.2962712613
  H        46.1998971536       26.6828731206       12.6182959347
  H        52.7414616393       21.0627288620        0.1998631093
  H        14.8844031772       19.6681122570       11.8836183390
  H        17.0858400369       19.7359406610       10.7062193222
  H        18.3403458426       16.2300018869       12.8574788611
  H        16.1406525901       16.1850717521       14.0437224122
  H        16.9458854055       17.6913334738        9.2956573999
  H        52.3233183795       21.6735354831       14.2887827169
  H        52.0136849898       21.7023705631        1.5007977940
  H        49.0681996700       18.6077641708       13.1987438693
  H        13.2481948416       19.0156193275       15.9723145521
  H        29.9386304444       12.4671821574        4.2480308857
  H        28.8714763465       10.5323185153        5.4173013906
  H        25.2444003536       11.2014667554        3.2058074610
  H        26.3333281724       13.1200566908        2.0252481946
  H        27.1672064066       11.6734474021        6.7960087757
  H        30.9982226522       22.7799324724        4.0149984135
  H        32.0100420747       24.6564488618        5.3164874499
  H        35.6986326751       24.1412727678        3.1651392610
  H        34.6659248406       22.2715543451        1.8595095276
  H        33.6815485743       23.5801114558        6.7582631299
  H        25.6993121812        8.5993413228        3.4087093291
  H        30.9321380588       22.7467060427       11.9698865533
  H        31.9630876301       24.5965590975       10.6491338154
  H        35.6300675151       24.1047590734       12.8431241671
  H        34.5839095515       22.2530158739       14.1604247155
  H        33.6587811840       23.5636760402        9.2017196956
  H        40.5904384610       17.0749972720       12.6593354238
  H        32.5173490781       14.1446932027        0.2648718471
  H        29.9070678714       12.4741636094       11.9566025281
  H        28.8654501758       10.5838107986       10.7027779631
  H        25.1651478813       11.2475643178       12.7906856366
  H        26.2222697516       13.1369876284       14.0430911254
  H        27.1620484846       11.6875043363        9.2373407419
  H        33.3002648168       14.2092678245       14.4398337173
  H        33.4089922808       14.4076961007        1.6129669600
  H        32.1656551086       18.5476829228       13.1978029542
  H        30.2276609331       14.1919214179        0.0690338751
  H        16.1182600107        2.9636902855        4.1349169011
  H        14.9534080504        4.8210094135        5.3275787906
  H        17.3668941967        7.6861274812        3.2151982712
  H        18.5152912251        5.8184461642        2.0154675913
  H        16.7540165561        5.7398692355        6.7766418487
  H        44.8277859811       32.1403627640        3.9825872710
  H        45.9371184112       30.3415333482        5.3120231568
  H        43.6833138272       27.3781735420        3.1570475556
  H        42.6005054405       29.1900575800        1.8144596187
  H        44.2302856443       29.4366461465        6.7741054674
  H        14.8521176053        8.5470066296        3.3684630956
  H        44.8995323145       32.2341498948       11.9262694777
  H        46.0245097165       30.4131313209       10.6468082726
  H        43.7646238060       27.4840899727       12.8411455302
  H        42.6467024883       29.3178285132       14.1201479466
  H        44.2684195704       29.4703984303        9.2131682318
  H        35.0869949940       26.6168027609       12.6270785323
  H        36.6050840201       35.1341210121        0.1857161379
  H        16.1436150122        3.0131291731       11.8988085613
  H        14.9742930844        4.8566663284       10.6831021954
  H        17.3963893673        7.7473127959       12.7501573203
  H        18.5432238988        5.8933471867       13.9777671580
  H        16.7650115486        5.7557048230        9.2141614178
  H        36.2783126148       34.4827658751       14.2679383953
  H        36.3805348849       34.2093533225        1.5047584870
  H        40.5807217904       33.2028940548       13.1482543951
  H        17.4706453108        1.9476328300       15.9689916305
  H        29.1486175348       19.4128454154        4.5527178383
  H        30.3448053550       19.6410018632       11.6047714352
  H        30.6773131627       15.3029940622       11.9464623438
  H        31.0667438166       15.4912515967        4.4030241776
  H        28.1957738882       18.1954703116        6.8188911515
  H        29.1437502717       15.2219339490        6.3403674326
  H        31.5422107870       20.3667557226        9.3478105023
  H        32.0033279545       15.9320850744       10.1446044017
  H        29.0174377368       16.7741339277        8.9620148420
  H        18.8536615668        0.8692375850        4.3402846262
  H        40.5278917096       35.2290708248       11.9469006940
  H        42.3245827550       34.4193926434       11.5851152122
  H        22.0877657997        0.6921208514        4.3567690079
  H        11.5969995965       18.7129119349        4.3876515618
  H        52.2652969110       18.4314555310       11.6721776908
  H        49.2552637854       16.4771162698       11.5794073389
  H        10.1503861583       15.7983072998        4.2978254354
  H        50.8505782693       17.6924914226       11.9490848648
  H        10.0463842001       17.3946340491        4.0569719122
  H        20.2149250234        0.0023804881        4.0470670614
  H        39.1836717122       36.1245488166       11.6814115108
 Ni        29.8825062975       17.3543348677       11.2391959829
 Ni        31.1109743128       16.0065790253        7.6671537222
 Ni        30.3515503663       18.7484821745        7.9987471827
 Ni        30.2209113122       17.4548358045        5.2436529528
  O        10.6500022364       14.3650778399       13.4807259441
  O        12.6132259947       14.6574936577       14.5787669162
  O        49.1481108043       16.8458262340       15.9845856497
  O        50.3503562337       20.9357514597       13.6428536995
  O        48.3485981533       20.5933707556       14.6607653475
  O        11.0519832549       17.0537811252       14.4956051727
  O        50.3210789429       20.8816642006        2.4119967246
  O        48.3467879611       20.5868061701        1.3322512426
  O        49.5439260683       18.2483648371        2.0732929916
  O        12.3593201176       18.6247030493        0.0047627503
  O        48.6932935970       14.1485438879       14.7462070305
  O         8.2099384377       14.2103957319        1.3276575568
  O        10.7354145925       14.5067437681        2.6694190514
  O        12.5718303150       14.5827829057        1.3335570029
  O        22.8444798604        2.0436148261       13.4820081753
  O        21.6049628729        3.5920595383       14.5850957889
  O        42.0583575131       34.1374935700       15.9739044365
  O        37.9818532710       33.1381571535       13.5674535187
  O        39.2184609671       31.5764689652       14.6618465178
  O        20.3084708764        1.0396663127       14.4969740865
  O        38.0248382324       33.1861496944        2.4201868119
  O        39.2193380907       31.5838972651        1.3313918804
  O        40.6523629824       33.7694153385        2.0653617492
  O        18.2552235468        1.3763123650        0.0019082349
  O        44.6222258497       35.1005617526       14.7536321296
  O        24.2054106962        0.0000147900        1.3259090552
  O        22.7528789978        2.0580454313        2.5889655608
  O        21.6240874021        3.5957355032        1.3470449646
  O        27.4952324794       18.7513437650       13.4972353804
  O        26.7691936657       16.9291562582       14.6524615399
  O        30.6678048609       19.4066715645        0.0703672763
  O        33.5811350807       16.2793709813       13.6575670278
  O        34.2752115481       18.1683647132       14.7292340143
  O        29.5790718053       17.0672964715       14.5714044751
  O        33.6227988579       16.3305617771        2.4157066782
  O        34.3057232673       18.2492238596        1.4096875032
  O        31.6558362646       18.3123288594        2.1577179652
  O        30.3254576163       15.1580733887        0.0870027856
  O        28.5529184336       21.0356104924       14.9001906648
  O        28.5136021724       20.9581951716        1.4176171996
  O        27.4569695235       18.6784765138        2.6655294226
  O        26.6948465977       16.9288821448        1.4178831501
  O        13.1491438070       18.6926060781        2.5926961078
  O        13.9190030877       16.9160747398        1.4097424796
  O        50.5966754202       19.3503003711        0.0254164715
  O        47.6833457648       16.3271051759        2.4224790694
  O        46.9525665242       18.1762072158        1.3290270644
  O        11.0700799902       17.0153862120        1.4946849042
  O        47.6761130383       16.3355136807       13.6480341179
  O        46.9276159440       18.2358518097       14.6597753496
  O        49.5689949021       18.3176722634       13.9771417342
  O        10.3188129108       15.1000898126        0.0021953096
  O        52.6708289759       21.0278757250        1.2469298471
  O        12.1468836912       20.8912201847       14.6681610966
  O        13.1091065684       18.6134202138       13.3202818398
  O        13.9573261331       16.9871180622       14.6602928120
  O        29.9914302466       14.4395885545        2.7324316689
  O        28.0884971338       14.6547057401        1.4971106755
  O        32.1425920151       16.8564261355        0.0827889881
  O        30.9663870064       20.9548318974        2.4131589197
  O        32.9479968757       20.6023889255        1.3449252239
  O        29.5682611401       17.0753562626        1.5806005800
  O        30.8787476242       20.9517189781       13.6587849359
  O        32.8818671873       20.5846832895       14.6624828347
  O        31.6838725396       18.2474429714       13.9842796376
  O        28.2866638853       18.6767946947        0.0831278790
  O        32.4944845829       14.2121731500        1.3361540853
  O        32.4052156606       14.2138583191       14.8184664747
  O        29.9173625113       14.4356074076       13.4852878668
  O        28.0405301611       14.5864734937       14.7461312912
  O        17.8892288154        1.9666749566        2.6679201479
  O        18.9562193183        3.5271219867        1.4131072718
  O        39.1686727787       34.1389346235        0.0023185936
  O        43.2802462007       33.0590011880        2.3368198052
  O        42.0345756285       31.5064374604        1.2467513467
  O        20.3177223552        1.0367786450        1.4852669174
  O        43.2760783537       33.1826356486       13.5698098949
  O        42.0053193466       31.5841320595       14.5778890003
  O        40.5790425193       33.7750420995       13.9307429180
  O        22.3673374386        1.3845989084        0.0030487571
  O        36.6727657565       35.0998210447        1.2383566934
  O        16.4455570833        0.0643094064       14.6632041280
  O        17.9364736991        2.0433798723       13.3212749026
  O        18.9189599735        3.5930928803       14.6608197699
  O        29.7824842989       19.0495971093       12.1452285423
  O        29.8257255493       18.9690818716        4.0070915551
  O        31.2297532205       16.1145906011       11.9887559569
  O        31.3473261845       16.3387255905        3.9988410372
  O        32.4516957221       15.9021901868        9.2498142089
  O        29.9602578032       16.9980243425        9.0713803030
  O        30.0426517773       15.5443297211        6.1674937175
  O        31.5672176226       17.7224405214        6.7401968322
  O        31.1349949389       19.4982163096        9.4993311167
  O        29.0680372015       18.5389323995        6.5724391952
  O        39.4567700539       35.2438621598       11.9968659357
  O        19.1415543542        0.0047173801        3.9956538365
  O        41.9696057845       35.1727609287       12.0820761014
  O        21.6913904379       -0.0693157809        3.9011136011
  O        51.3653627871       18.6143367997       12.0002920783
  O        10.7512109862       18.7470979061        3.9100240509
  O        50.0796874542       16.4127468831       12.0866128145
  O         9.5244810524       16.4831491009        3.9962995953
 Zr         9.2980346639       16.0527239806       14.1774595512
 Zr        49.8373685653       16.0066249547        1.7513096653
 Zr        22.0733786493        0.0302242846       14.1838719493
 Zr        42.4610596973       35.1537971842        1.8061254544
 Zr        29.5929360866       19.1156800621       14.2805859728
 Zr        29.5776464439       19.1743163130        1.8718589925
 Zr        11.0392168201       19.0516949058        1.8329075547
 Zr        11.0452532908       19.1546555420       14.2455778025
 Zr        31.3523012092       16.1000965518        1.8825660792
 Zr        31.4009662628       16.0194485694       14.2970414130
 Zr        18.6012348576       -0.0008527151        1.7684366613
 Zr        18.5065707089       -0.0072182294       14.2087192263
 Zr        12.3035567831       16.3237264009       15.9850605966
 Zr        48.6181332130       18.8333616336        0.0151198786
 Zr        20.3148972792        2.4737065253       15.9854156473
 Zr        40.6438806277       32.6876111736       15.9732063926
 Zr        28.3428845751       16.3500488333        0.0824660118
 Zr        32.6264653159       18.8419194020        0.0641687388
  H        32.4777231537       17.9785622042        6.5196771921
  H        33.0140220890       16.6974478170        9.2612254794
  H        28.5561358039       16.5954099662       11.4053161388
