     574
 i =      115, E =     -4778.8308333596
  C        11.8588107916       14.0533883138       13.7365714709
  C        12.4564132503       12.8907232390       13.0180064579
  C        11.7045468533       12.1714043676       12.0767853303
  C        12.2809550468       11.1092276887       11.3844368035
  C        13.6216512331       10.7396908233       11.6119097661
  C        14.3550150882       11.4436927947       12.5849083207
  C        13.7820960334       12.5086420702       13.2764339276
  C        14.2611082609        9.6489685605       10.8385233562
  C        14.2562175261        9.6567605130        9.4168283093
  C        13.7430052561       10.7588758278        8.6629466194
  C        49.1269828726       21.2329930083       13.8745560711
  C        48.5503506523       22.4011124180       13.1475915278
  C        49.3001482307       23.0679236420       12.1660942215
  C        48.7332431139       24.1070936674       11.4328982586
  C        47.4028994170       24.5091410206       11.6619503673
  C        46.6721996527       23.8607758326       12.6759792630
  C        47.2346475110       22.8158658687       13.4052995806
  C        46.7724927772       25.5867603868       10.8647243697
  C        46.7612641322       25.5570725703        9.4429649613
  C        47.2610501898       24.4419327942        8.6994343591
  C        14.8600598374        8.5703649072        8.7035757894
  C        14.8920715537        8.5971460845       11.5151921245
  C        49.1133183168       21.2033924444        2.1505921176
  C        48.5281249972       22.3650027641        2.8775503571
  C        49.2671501166       23.0251652639        3.8709725071
  C        48.6908742630       24.0597665399        4.6024190923
  C        47.3606721952       24.4569917399        4.3637675882
  C        46.6405160760       23.8126508194        3.3397036859
  C        47.2140072073       22.7767017296        2.6079461390
  C        46.7221436568       25.5318816834        5.1548165622
  C        46.7335259852       25.5279980214        6.5765228518
  C        47.2488007702       24.4286868697        7.3328811991
  C        40.6242274388       17.0931606442        7.3115514617
  C        40.6294368867       17.0969546126        4.5026623317
  C        11.8829764596       14.0862656847        2.2903968783
  C        12.4725009176       12.9108999173        2.9950613245
  C        11.7148313874       12.1774215188        3.9208333425
  C        12.2814380331       11.0950300878        4.5893150564
  C        13.6202919219       10.7213408967        4.3575757091
  C        14.3583373533       11.4370433602        3.3969358608
  C        13.7928969688       12.5181590542        2.7241694976
  C        14.2538682892        9.6245785644        5.1279894818
  C        14.2523573580        9.6444173078        6.5498307187
  C        13.7424950852       10.7533697634        7.2969041188
  C        22.5134369946        3.2441302066       13.7483595414
  C        23.2326419360        4.3470316979       13.0499158767
  C        24.2295496601        4.0619805749       12.1050088329
  C        24.8626762651        5.0980183523       11.4234608473
  C        24.5148813645        6.4417348824       11.6662480730
  C        23.5459725400        6.7181886380       12.6481951310
  C        22.9081531771        5.6838501138       13.3283561855
  C        25.1269614473        7.5447326083       10.8902926164
  C        25.1001542335        7.5364007701        9.4686580900
  C        24.3933026945        6.5399512643        8.7230067193
  C        38.3032679413       31.9299697212       13.8440442417
  C        37.5745922172       30.8400997572       13.1342619993
  C        36.6131861570       31.1433913775       12.1582585157
  C        35.9962427818       30.1225737329       11.4406763635
  C        36.3260230359       28.7738699811       11.6779405880
  C        37.2584320521       28.4779393854       12.6898827718
  C        37.8793649560       29.4975047639       13.4064601823
  C        35.7214860397       27.6828508776       10.8818420074
  C        35.7486285365       27.6991242423        9.4605410340
  C        36.4562318789       28.7000175099        8.7230113115
  C        25.7262414060        8.6041392679        8.7480390910
  C        25.7265435349        8.6188673333       11.5604117854
  C        38.3287707086       31.9617140349        2.1620042233
  C        37.6066315770       30.8883012303        2.9041864837
  C        36.6777212018       31.1972802869        3.9096651480
  C        36.0668887950       30.1791534599        4.6393149569
  C        36.3703783043       28.8261745402        4.3873038891
  C        37.2771383587       28.5271040698        3.3519631285
  C        37.8902377729       29.5417847287        2.6236731281
  C        35.7605436252       27.7278252518        5.1716649222
  C        35.7684671811       27.7223469040        6.5937883604
  C        36.4655014828       28.7112520476        7.3565359448
  C        46.1354566905       26.6205787012        7.2866944691
  C        46.0883256136       26.5803499113        4.4787949533
  C        22.4614851462        3.2560610400        2.2631658774
  C        23.1575475948        4.3636345029        2.9859708467
  C        24.1608333257        4.0753337363        3.9249522627
  C        24.7913721314        5.1036680342        4.6211955840
  C        24.4388564141        6.4504654183        4.4017288734
  C        23.4582762640        6.7321180051        3.4315145172
  C        22.8231790511        5.7039057432        2.7355816962
  C        25.0737889216        7.5462355826        5.1760907335
  C        25.0733418703        7.5367330166        6.5990492314
  C        24.3788896091        6.5410793743        7.3563518415
  C        26.5691218354       17.8223476503       13.7899259693
  C        25.2685374328       17.8753532458       13.0605922362
  C        25.0437156832       18.8550577278       12.0818258892
  C        23.8352618458       18.8893083671       11.3904238057
  C        22.8240429670       17.9428048737       11.6520080662
  C        23.0491650527       16.9837151819       12.6569270130
  C        24.2567257584       16.9472095803       13.3506718972
  C        21.5572292257       17.9356962234       10.8830655142
  C        21.5614936327       17.9155550950        9.4612547594
  C        22.7687049162       17.7824186099        8.7049745333
  C        34.4868541438       17.2551935662       13.9649003948
  C        35.7769279194       17.1959648487       13.2142385049
  C        35.9871444576       16.1873307630       12.2604985906
  C        37.1535759774       16.1676760423       11.5007340271
  C        38.1436173893       17.1528733556       11.6797900833
  C        37.9384689303       18.1414161410       12.6603451662
  C        36.7672009115       18.1688842954       13.4143682248
  C        39.3905283212       17.1476551235       10.8814763813
  C        39.3776854248       17.1340712623        9.4605244769
  C        38.1652419827       17.2331770033        8.7080651736
  C        20.3169839051       17.9423450417        8.7506924898
  C        20.3319190252       17.9389552750       11.5631187539
  C        34.4376277917       17.2362091930        2.1958466452
  C        35.7400047289       17.1340743978        2.9178691457
  C        35.9468445215       16.1491340554        3.8950856365
  C        37.1375108635       16.1152819578        4.6171995912
  C        38.1501932354       17.0655430160        4.3815941852
  C        37.9505984512       18.0227192905        3.3693628768
  C        36.7599085776       18.0607356447        2.6498471435
  C        39.4005796385       17.0814144324        5.1728419554
  C        39.3832686443       17.1022541654        6.5940680311
  C        38.1680659610       17.2171736343        7.3413101384
  C        35.1335454398       26.6458530271        7.2982104302
  C        35.1701213400       26.6569236794        4.4890409500
  C        26.5721904376       17.8250696016        2.3345299669
  C        25.2573621070       17.8744435246        3.0386629643
  C        24.9953318014       18.8792368597        3.9821175252
  C        23.7768994129       18.9079359507        4.6543309509
  C        22.7907688363       17.9326431971        4.4049149922
  C        23.0477315841       16.9522856360        3.4295879530
  C        24.2672693458       16.9208930694        2.7563537562
  C        21.5250810316       17.9189602625        5.1738337026
  C        21.5447487490       17.9067317398        6.5949719739
  C        22.7603853338       17.7792782327        7.3390251947
  C        14.0464798033       17.8320572214        2.2907800142
  C        15.3523085210       17.8974314909        3.0096018938
  C        15.6095937743       18.9097444305        3.9473044468
  C        16.8191607000       18.9365575282        4.6381784701
  C        17.8036162934       17.9534342399        4.4129102933
  C        17.5517806879       16.9662660861        3.4419538326
  C        16.3418512566       16.9348858096        2.7525647486
  C        19.0702854616       17.9370708014        5.1832966144
  C        19.0635866616       17.9330378867        6.6052643882
  C        17.8535694523       17.8388144242        7.3625733846
  C        46.8036246333       17.2163017356        2.1620244933
  C        45.5098802448       17.1459473657        2.9020951504
  C        45.3063486804       16.1650967110        3.8851431772
  C        44.1210065497       16.1366811434        4.6151036524
  C        43.1091160570       17.0890738870        4.3846746931
  C        43.3093655670       18.0486363127        3.3739682194
  C        44.4956939012       18.0808973145        2.6448083437
  C        41.8566795019       17.0943060051        5.1754957242
  C        41.8681080862       17.1053121127        6.5974128273
  C        43.0802061357       17.2116622166        7.3496189081
  C        20.3081278691       17.9369881966        7.3164499257
  C        20.2953596189       17.9130830649        4.5036308522
  C        46.7874857459       17.2339012956       13.8816692227
  C        45.4875693507       17.1365796520       13.1591860904
  C        45.2688282390       16.1419161396       12.1942346756
  C        44.0844031756       16.1238339907       11.4621905212
  C        43.0901405939       17.0974048693       11.6786728773
  C        43.2997705562       18.0631940779       12.6804874047
  C        44.4850245631       18.0872775261       13.4079906243
  C        41.8433572516       17.1200317022       10.8843117052
  C        41.8613639721       17.1173558532        9.4634962174
  C        43.0771917907       17.2141932019        8.7162146865
  C        46.1531495146       26.6369233462        8.7212510034
  C        46.1626342338       26.6559276367       11.5308811139
  C        14.0429048932       17.8314049975       13.7033195773
  C        15.3601365067       17.9058283379       13.0094501898
  C        15.6318120516       18.9280754103       12.0879522855
  C        16.8575738868       18.9663181972       11.4281107782
  C        17.8370869846       17.9814235725       11.6644742587
  C        17.5730424383       16.9884234217       12.6252485677
  C        16.3494953596       16.9497748013       13.2889597274
  C        19.1020365111       17.9600441341       10.8940357402
  C        19.0801221895       17.9442361667        9.4726976927
  C        17.8617592997       17.8438034487        8.7288405686
  C        28.8091676564       14.0934195456        2.3964665151
  C        28.1983423635       12.9187445400        3.0838260885
  C        28.9293491570       12.1675815340        4.0159109521
  C        28.3338945933       11.0905343927        4.6674421268
  C        26.9927923541       10.7404708989        4.4114239844
  C        26.2822990253       11.4730153830        3.4436705509
  C        26.8754580256       12.5506529269        2.7906385184
  C        26.3288499753        9.6572927469        5.1729285998
  C        26.3265595344        9.6785715663        6.5941479616
  C        26.8383995106       10.7877521259        7.3396905728
  C        32.1759680780       21.2390093821        2.1533833119
  C        32.7715980461       22.4038352238        2.8727386674
  C        32.0176606895       23.0907598736        3.8365459434
  C        32.5856766850       24.1320900316        4.5638325919
  C        33.9241696413       24.5130920392        4.3488612523
  C        34.6616209758       23.8446799946        3.3535411739
  C        34.0953040557       22.7983115707        2.6277524160
  C        34.5506575920       25.5900844087        5.1489925523
  C        34.5370501201       25.5644670753        6.5706682643
  C        34.0168436628       24.4549987121        7.3095252601
  C        25.7167827621        8.6008700788        7.3132780795
  C        25.6865845175        8.6099514949        4.4997415095
  C        32.0963335192       21.2332735468       13.8841037694
  C        32.6841015704       22.3885802767       13.1435624719
  C        31.9448219370       23.0566975891       12.1549674881
  C        32.5258539901       24.0842689099       11.4154176371
  C        33.8596427486       24.4738304247       11.6465194387
  C        34.5810970656       23.8210215278       12.6645810843
  C        34.0053877376       22.7875397152       13.3988400662
  C        34.5003777936       25.5531167654       10.8600677169
  C        34.5098019944       25.5460848705        9.4380313412
  C        34.0020329466       24.4469810229        8.6761865815
  C        40.6207486249       17.1046282832        8.7458354171
  C        40.6163019358       17.1568360953       11.5552203360
  C        28.7497742130       14.0724107435       13.8081252495
  C        28.1450908749       12.9230972409       13.0703238611
  C        28.8901244893       12.2175642475       12.1130425418
  C        28.3147248589       11.1571786360       11.4163913257
  C        26.9792669442       10.7740242412       11.6539814179
  C        26.2512391592       11.4676561346       12.6387793225
  C        26.8243817494       12.5292896008       13.3362099145
  C        26.3419250693        9.6792139518       10.8824401368
  C        26.3341798597        9.6899014942        9.4605290013
  C        26.8393463202       10.7947345139        8.7055463682
  C        18.1355435887        3.1810796946        2.3223268145
  C        17.4063079870        4.2783060277        3.0209106856
  C        16.3902241814        3.9999769978        3.9480485340
  C        15.7425000300        5.0399727730        4.6114997095
  C        16.0948118647        6.3836669852        4.3722248848
  C        17.0846430780        6.6531780410        3.4089169604
  C        17.7337235365        5.6158157840        2.7438782335
  C        15.4703555540        7.4912952040        5.1352707634
  C        15.4853248659        7.4904016202        6.5569866431
  C        16.1867370144        6.4966895536        7.3101605311
  C        42.9458709708       31.8595668536        2.0780849419
  C        43.6464076391       30.7718630912        2.8219489272
  C        44.5917110126       31.0932282950        3.8082174670
  C        45.1974865434       30.0877131759        4.5558879647
  C        44.8712568176       28.7346236704        4.3409134282
  C        43.9456651436       28.4202325401        3.3274979295
  C        43.3367680161       29.4253528171        2.5794822069
  C        45.4888588117       27.6553112074        5.1440908652
  C        45.4927737239       27.6807390734        6.5657921053
  C        44.8055618782       28.6886787121        7.3124428622
  C        14.8563445514        8.5628797060        7.2693554917
  C        14.8752375815        8.5631481861        4.4566814435
  C        42.9460025210       31.9615210534       13.8034335818
  C        43.6919237393       30.8852721339       13.0907283739
  C        44.6558823175       31.1911655396       12.1178075951
  C        45.2775799987       30.1715443244       11.4002732064
  C        44.9539961847       28.8212184653       11.6380986142
  C        44.0208484299       28.5235869254       12.6491999380
  C        43.3924104360       29.5403835216       13.3611988712
  C        45.5630530946       27.7237985858       10.8528811804
  C        45.5331765349       27.7170543951        9.4315793932
  C        44.8267556567       28.7072221661        8.6786329572
  C        35.1213364615       26.6353593431        8.7330526734
  C        35.1178687993       26.6076331670       11.5431720338
  C        18.1487517491        3.2470296730       13.7014093575
  C        17.4301006129        4.3438349870       12.9922539929
  C        16.4145670323        4.0526194590       12.0690078072
  C        15.7662536600        5.0832812794       11.3936886880
  C        16.1213505285        6.4284726347       11.6160334054
  C        17.1131700891        6.7118269999       12.5728421903
  C        17.7608350029        5.6828753434       13.2525646411
  C        15.4907056693        7.5241048607       10.8436069038
  C        15.4963537985        7.5073179097        9.4224743699
  C        16.1929325463        6.5054947236        8.6757674575
  H        10.6723429435       12.4653800750       11.8999754919
  H        11.6945966291       10.5504925737       10.6581527841
  H        15.3922205255       11.1694990731       12.7662580641
  H        14.3517996664       13.0722200724       14.0114162338
  H        13.3761723104       11.6310728061        9.1962629383
  H        50.3227123774       22.7475729241       11.9810489843
  H        49.3196015243       24.6220384281       10.6750011607
  H        45.6429222634       24.1619917981       12.8596117328
  H        46.6639751758       22.2910144829       14.1679127677
  H        47.6296030351       23.5755425536        9.2410893100
  H        14.8727686916        8.5886058291       12.6035061028
  H        50.2870352910       22.7019496283        4.0661536393
  H        49.2691706630       24.5748493163        5.3662483953
  H        45.6113278397       24.1103748824        3.1502354037
  H        46.6534247353       22.2549512796        1.8359331334
  H        47.6075832670       23.5515871204        6.8019542128
  H        40.6306802832       17.0593501857        3.4149669796
  H        48.6872872307       14.0951629538       15.7950499913
  H        10.6813618929       12.4664879851        4.0982280661
  H        11.6896559405       10.5245370222        5.3019351550
  H        15.3938543942       11.1593673764        3.2111628921
  H        14.3654279030       13.0877331031        1.9959489899
  H        13.3758509073       11.6220675225        6.7582799168
  H        47.9302401675       14.2191788538        1.7159818116
  H        47.7801238027       14.3744252424       14.4905651939
  H        49.0837114736       18.5521228575        2.8726584723
  H        10.4164854845       14.1342679539        0.0038722617
  H        24.4858192381        3.0220786378       11.9150738839
  H        25.6356323697        4.8763534397       10.6907841817
  H        23.2695845976        7.7525088201       12.8421327987
  H        22.1380189401        5.8883514909       14.0681442148
  H        23.8302646082        5.7847732577        9.2636706651
  H        36.3746159992       32.1864266144       11.9641581451
  H        35.2500823747       30.3604927404       10.6857565307
  H        37.5205593527       27.4390973661       12.8794771996
  H        38.6248157397       29.2777535197       14.1670328510
  H        37.0241655714       29.4477849186        9.2688035831
  H        25.7583047735        8.6038706342       12.6483727673
  H        36.4549530210       32.2415562360        4.1167592002
  H        35.3409612820       30.4247289282        5.4113089542
  H        37.5235198274       27.4867509093        3.1501461294
  H        38.6126360871       29.3153492815        1.8432598385
  H        37.0413007566       29.4674425253        6.8307528029
  H        46.1100693817       26.5879578417        3.3907676762
  H        44.6682392750       35.1161782319       15.8088895153
  H        24.4376127827        3.0365682394        4.0902773226
  H        25.5731523314        4.8726245581        5.3416037144
  H        23.1741166842        7.7671782009        3.2528038464
  H        22.0505913802        5.9191386092        2.0009877595
  H        23.8042095231        5.7873827769        6.8258388892
  H        44.9535994570       34.3902174389        1.7002134552
  H        44.9015108391       34.2066116819       14.4856972372
  H        40.6658974433       33.2092169244        2.8583428779
  H        23.1505374924        1.9579588589        0.0105695843
  H        25.8310132059       19.5780306971       11.8798009800
  H        23.6599653001       19.6565509850       10.6393871630
  H        22.2785075034       16.2438262418       12.8629928339
  H        24.4436967622       16.1955633645       14.1139138164
  H        23.7064144617       17.6497221604        9.2367919279
  H        35.2179093071       15.4296100877       12.1292734681
  H        37.3170219327       15.3781116184       10.7703964589
  H        38.6984404503       18.9074150769       12.8010383103
  H        36.5911352743       18.9485716348       14.1521249431
  H        37.2282249425       17.3549362283        9.2444098198
  H        20.3372089877       17.9759030986       12.6510073803
  H        35.1557628411       15.4281609247        4.0877470164
  H        37.2961378443       15.3485215564        5.3724284230
  H        38.7262768444       18.7625083401        3.1823202646
  H        36.5860987132       18.8183879595        1.8895816230
  H        37.2327066188       17.3265199756        6.7999602055
  H        35.1454837272       26.6803501216        3.4012194625
  H        28.5023023004       21.0854021346       15.9712077746
  H        25.7590566841       19.6306259426        4.1692172618
  H        23.5731654569       19.6907225148        5.3817834493
  H        22.2945456516       16.1922163170        3.2323508571
  H        24.4817887778       16.1528937231        2.0170478091
  H        23.6917765839       17.6461452548        6.7968747743
  H        29.0194888817       21.7150348066        1.7598461812
  H        29.1550133446       21.7389793183       14.6092517887
  H        32.0661992635       18.5562618285        3.0012775707
  H        27.3397232159       19.0529187248        0.0862329469
  H        14.8510950671       19.6701685393        4.1190877527
  H        17.0158647137       19.7260762381        5.3603871584
  H        18.3030454381       16.2002201479        3.2613573631
  H        16.1343919695       16.1594127861        2.0191480989
  H        16.9120065851       17.7297632467        6.8323494782
  H        46.0944136752       15.4392385184        4.0714303853
  H        43.9645655370       15.3689609429        5.3697563806
  H        42.5362394000       18.7919599368        3.1907172480
  H        44.6668901775       18.8366157533        1.8817337154
  H        44.0192272990       17.3225204822        6.8149833645
  H        20.2918859822       17.9432050338        3.4155067049
  H        46.0420451383       15.3970464093       12.0204811524
  H        43.9157023233       15.3511503471       10.7153062267
  H        42.5366771203       18.8192291256       12.8533514754
  H        44.6687197277       18.8506293306       14.1600130073
  H        44.0138100211       17.3265020440        9.2547231719
  H        46.1997706128       26.6826045101       12.6183143748
  H        52.7413432986       21.0627500854        0.1997377076
  H        14.8730449528       19.6860140179       11.9065445578
  H        17.0705823291       19.7622468572       10.7177962493
  H        18.3232042691       16.2237170389       12.8160485265
  H        16.1284613797       16.1713792143       14.0152029866
  H        16.9262940677       17.7388118462        9.2702651949
  H        52.3227529667       21.6735836529       14.2892335355
  H        52.0137475967       21.7026253642        1.5006477737
  H        49.0683461574       18.6084600396       13.1989068531
  H        13.2478921882       19.0161304395       15.9714199447
  H        29.9627693413       12.4419928068        4.2147234886
  H        28.9026005147       10.5073534043        5.3884825954
  H        25.2455579675       11.2133549188        3.2395485466
  H        26.3242487553       13.1367250385        2.0593313912
  H        27.2030135418       11.6559964046        6.7991675914
  H        30.9892445275       22.7835569068        4.0097807726
  H        31.9958361639       24.6643999585        5.3068499604
  H        35.6977010193       24.1298686927        3.1826705331
  H        34.6694071066       22.2567945781        1.8793706353
  H        33.6522844229       23.5895589000        6.7635418406
  H        25.7090677985        8.5950439679        3.4114851870
  H        30.9166887464       22.7529425799       11.9717688674
  H        31.9464122239       24.6023830529       10.6543724256
  H        35.6132163036       24.1117824789       12.8492302152
  H        34.5675977873       22.2599003813       14.1658716375
  H        33.6256965358       23.5751960655        9.2038969132
  H        40.6144275136       17.1382111112       12.6433118552
  H        32.5139273842       14.1490793491        0.2670366388
  H        29.9225029295       12.5121447538       11.9371618881
  H        28.8997346346       10.6058078978       10.6834427336
  H        25.2175885180       11.1854621557       12.8282161230
  H        26.2582643454       13.0805327437       14.0833211048
  H        27.2026604918       11.6689339446        9.2380072066
  H        33.2999959446       14.2040713386       14.4358974097
  H        33.4046859828       14.4186398024        1.6093756106
  H        32.1579206290       18.6920798974       13.2666035605
  H        30.2192858287       14.1900691429        0.0951016500
  H        16.1178425732        2.9635017140        4.1341268867
  H        14.9527418160        4.8206538559        5.3268358273
  H        17.3674863731        7.6860148453        3.2161903965
  H        18.5161046297        5.8184826152        2.0164031454
  H        16.7532749633        5.7393323589        6.7766670331
  H        44.8278553291       32.1403341089        3.9824657154
  H        45.9372256707       30.3415229377        5.3119394202
  H        43.6831880502       27.3781330383        3.1572308189
  H        42.6003324213       29.1899985110        1.8146468514
  H        44.2302569751       29.4364895434        6.7741441023
  H        14.8518178884        8.5465895389        3.3684511216
  H        44.8993565078       32.2338475968       11.9262741630
  H        46.0242864433       30.4127712031       10.6468379158
  H        43.7641401063       27.4838441044       12.8410274549
  H        42.6462884998       29.3176300923       14.1200311391
  H        44.2682248328       29.4700781676        9.2132345773
  H        35.0802218434       26.6183602067       12.6308394703
  H        36.6051782162       35.1340854139        0.1856915713
  H        16.1431497815        3.0130768129       11.8996246038
  H        14.9736360821        4.8565062591       10.6839103875
  H        17.3971214654        7.7472442010       12.7493344897
  H        18.5440734471        5.8933443252       13.9769304145
  H        16.7643504029        5.7552366139        9.2141958459
  H        36.2786878878       34.4825025838       14.2681124967
  H        36.3810385116       34.2091323877        1.5047422995
  H        40.5804971112       33.2028789889       13.1484580305
  H        17.4710198368        1.9478278989       15.9690931747
  H        29.1895797759       19.4144953459        4.5145194978
  H        30.1386811420       19.7616652059       11.6994033346
  H        32.2498910099       16.9197479360       12.1806965498
  H        31.2126098817       15.6312212012        4.5710679176
  H        28.3773231260       18.0020200740        6.7654520731
  H        29.4130915337       15.7134928292        6.7427547517
  H        31.7068343870       18.9506022070        9.8122311688
  H        33.1239644872       15.7296751813        9.4865698547
  H        29.8977615608       15.4356094381       10.1945377203
  H        18.8528860835        0.8688853562        4.3402753712
  H        40.5280222559       35.2290564700       11.9469045296
  H        42.3241544132       34.4189914964       11.5852452872
  H        22.0874161255        0.6924371733        4.3566110105
  H        11.5967843713       18.7125460757        4.3878143605
  H        52.2650332980       18.4320039948       11.6720205626
  H        49.2551190132       16.4774211342       11.5796706069
  H        10.1505918595       15.7983831429        4.2976715779
  H        50.8505930606       17.6924706253       11.9489514052
  H        10.0462056192       17.3947908599        4.0569462588
  H        20.2140493327        0.0021376608        4.0471921063
  H        39.1837088288       36.1244634832       11.6812661583
 Ni        29.6756467824       17.6700175980       10.9059225316
 Ni        30.9915394400       16.7546830454        8.4084999721
 Ni        30.0982865468       18.8474917733        8.0812512945
 Ni        30.0968577955       17.4786469523        5.2479644907
  O        10.6499647394       14.3651317347       13.4806837650
  O        12.6132082902       14.6574791434       14.5787258726
  O        49.1478765355       16.8458179144       15.9847257770
  O        50.3503435320       20.9357598395       13.6429243876
  O        48.3486863146       20.5932875575       14.6609703247
  O        11.0516419314       17.0537709967       14.4957217470
  O        50.3210420252       20.8817344869        2.4119804718
  O        48.3467435207       20.5868538916        1.3322576400
  O        49.5436433054       18.2484294506        2.0734154179
  O        12.3592882121       18.6246898699        0.0048304231
  O        48.6932144772       14.1485807952       14.7462251303
  O         8.2098959371       14.2104109634        1.3276260058
  O        10.7355118747       14.5067727377        2.6696956099
  O        12.5719577175       14.5829374817        1.3337830920
  O        22.8445700795        2.0424942506       13.4822694024
  O        21.6062614291        3.5925649807       14.5839792490
  O        42.0582766875       34.1374536584       15.9739568094
  O        37.9818938161       33.1380122685       13.5674861928
  O        39.2184398544       31.5764553216       14.6618294106
  O        20.3084233086        1.0397575063       14.4971310979
  O        38.0243038652       33.1854598133        2.4203020692
  O        39.2187255910       31.5833848379        1.3317134533
  O        40.6522998144       33.7694064818        2.0653817307
  O        18.2556227358        1.3765393571        0.0018353211
  O        44.6222213959       35.1004763532       14.7536801816
  O        24.2053724551       -0.0000209660        1.3258840689
  O        22.7531612064        2.0576541970        2.5888703610
  O        21.6248643268        3.5964732125        1.3483956826
  O        27.4541316736       18.6918386367       13.4989608560
  O        26.6981286850       16.9041387099       14.6722535688
  O        30.6319276783       19.3543911555        0.0754141436
  O        33.6340313129       16.3336186817       13.7395895346
  O        34.3111328205       18.2493013816       14.7463740983
  O        29.5712957738       17.0592124660       14.5727592792
  O        33.5498942931       16.3396606167        2.4269678158
  O        34.2990167221       18.2377622375        1.4162285899
  O        31.6499665775       18.3134800257        2.1569198933
  O        30.3215822460       15.1558718102        0.0902221800
  O        28.5504067703       21.0329736530       14.9007735023
  O        28.5137704729       20.9577099484        1.4182731279
  O        27.4588664056       18.6790052327        2.6667100605
  O        26.6928682692       16.9277627385        1.4229480438
  O        13.1470578731       18.6939573023        2.5914993223
  O        13.9189184832       16.9165728398        1.4098707299
  O        50.5964268037       19.3503417389        0.0257903850
  O        47.6832141986       16.3267515537        2.4224776300
  O        46.9506796799       18.1755337342        1.3305684254
  O        11.0696386031       17.0156686526        1.4946386149
  O        47.6754454269       16.3356262446       13.6477015110
  O        46.9283025663       18.2359246406       14.6601657423
  O        49.5687322903       18.3176025399       13.9772801432
  O        10.3186285612       15.1000617586        0.0020247103
  O        52.6707134882       21.0279155657        1.2468925473
  O        12.1468242880       20.8913786370       14.6682709593
  O        13.1059539957       18.6142419939       13.3210043032
  O        13.9554676680       16.9867823104       14.6602193496
  O        29.9955245135       14.4425973305        2.7322353346
  O        28.0889188374       14.6536200112        1.4991848149
  O        32.1325219476       16.8529449583        0.0842112859
  O        30.9614565011       20.9504162580        2.4132147434
  O        32.9425481559       20.6023336074        1.3438272613
  O        29.5591351562       17.0755543908        1.5744210593
  O        30.8683850820       20.9405379006       13.6549405898
  O        32.8734459383       20.5883966811       14.6621128014
  O        31.6771960490       18.2621876038       13.9896122630
  O        28.2310664706       18.6688588712        0.0819941921
  O        32.4910579719       14.2142515161        1.3375558581
  O        32.4071004550       14.2130350456       14.8193504126
  O        29.9214249136       14.4490707782       13.4756063411
  O        28.0415887692       14.5867634134       14.7436731424
  O        17.8892552258        1.9666464528        2.6678664080
  O        18.9562777943        3.5271801022        1.4130534464
  O        39.1685749015       34.1388462364        0.0023373000
  O        43.2802535853       33.0589547716        2.3367822433
  O        42.0345952022       31.5064462866        1.2467200090
  O        20.3176920665        1.0368678687        1.4851173094
  O        43.2762726471       33.1824110970       13.5701180464
  O        42.0055295301       31.5839404340       14.5782482818
  O        40.5789534061       33.7750888619       13.9309091205
  O        22.3673958148        1.3847544836        0.0030882028
  O        36.6727921172       35.0997913337        1.2383756399
  O        16.4456015279        0.0643338111       14.6632376076
  O        17.9364442803        2.0432872409       13.3214607543
  O        18.9191336020        3.5930606689       14.6608534715
  O        29.6224174749       19.0652437853       12.1505626723
  O        29.8574574266       18.9052093373        4.0147685762
  O        31.6006275935       16.1999018088       12.0851102419
  O        31.1802426660       16.4743521039        4.0793273766
  O        32.4844078627       16.4114463668        9.7453045491
  O        29.6504685660       16.2079348370        9.6550613260
  O        30.2849976310       16.1224391105        6.5921668598
  O        31.8931851555       18.0166061838        7.3372353301
  O        30.7472602667       19.1216002287        9.8097480265
  O        29.1447139738       18.5436402861        6.4979880666
  O        39.4568101463       35.2438328168       11.9968720708
  O        19.1408179075        0.0043416540        3.9957114367
  O        41.9695468864       35.1726648808       12.0820047939
  O        21.6912643102       -0.0692114862        3.9010976853
  O        51.3650384063       18.6143784498       12.0001734535
  O        10.7510198758       18.7470648385        3.9101841215
  O        50.0796347991       16.4127060431       12.0866915161
  O         9.5244358472       16.4831201877        3.9964055893
 Zr         9.2980031368       16.0526906272       14.1774361239
 Zr        49.8375274569       16.0067073663        1.7514891329
 Zr        22.0732615706        0.0302635026       14.1838407519
 Zr        42.4609339285       35.1539762438        1.8062790887
 Zr        29.5474462631       19.0880691152       14.2903625918
 Zr        29.5649775736       19.1644941461        1.8644221983
 Zr        11.0387902165       19.0520340101        1.8331424362
 Zr        11.0447077306       19.1547379876       14.2457498858
 Zr        31.3292607319       16.1111996236        1.8798991481
 Zr        31.3934206803       15.9919557552       14.2674881106
 Zr        18.6012666301       -0.0009874102        1.7683523331
 Zr        18.5066706730       -0.0071190576       14.2086989711
 Zr        12.3029586552       16.3234824406       15.9854820570
 Zr        48.6179031719       18.8331880497        0.0159265409
 Zr        20.3156811814        2.4742465655       15.9854632638
 Zr        40.6436906289       32.6875501075       15.9733977891
 Zr        28.3246500907       16.3357725071        0.0768425926
 Zr        32.6124810091       18.8349327558        0.0724361612
  H        32.7127240008       18.3180499756        7.7743101674
  H        32.0851638382       16.1591119134       10.6897871922
  H        28.7615298563       16.9041441217       11.7114802439
