     574
 i =      233, E =     -4778.8577525602
  C        11.8587131912       14.0534555453       13.7364153360
  C        12.4561936681       12.8905255804       13.0180857157
  C        11.7044713859       12.1715111760       12.0765242196
  C        12.2808375664       11.1092642185       11.3842336692
  C        13.6214696275       10.7396214883       11.6118721163
  C        14.3547145566       11.4433233000       12.5851759749
  C        13.7818191011       12.5083399216       13.2766155013
  C        14.2609391078        9.6488829222       10.8385361488
  C        14.2562037793        9.6567655215        9.4168391568
  C        13.7431610818       10.7589548082        8.6629438729
  C        49.1267545287       21.2333936465       13.8746683385
  C        48.5498752898       22.4013197865       13.1475761567
  C        49.2998660600       23.0685226598       12.1664862281
  C        48.7329035204       24.1076011024       11.4332222301
  C        47.4024284184       24.5093439191       11.6619845797
  C        46.6715534056       23.8606256740       12.6756497534
  C        47.2340266617       22.8157732865       13.4050612039
  C        46.7721350587       25.5869837717       10.8646961636
  C        46.7610057205       25.5572935295        9.4429389747
  C        47.2609000198       24.4421625415        8.6994737529
  C        14.8601092165        8.5704043594        8.7035887651
  C        14.8917094504        8.5969417476       11.5151953320
  C        49.1130907704       21.2034340392        2.1504426617
  C        48.5276299047       22.3647544256        2.8776855616
  C        49.2668206236       23.0253838374        3.8706673639
  C        48.6904855620       24.0598986021        4.6021923186
  C        47.3601407557       24.4567846489        4.3638058549
  C        46.6397469946       23.8119646335        3.3402156821
  C        47.2133398253       22.7761136584        2.6083844994
  C        46.7216342345       25.5317256355        5.1548147654
  C        46.7332758542       25.5280573918        6.5765160384
  C        47.2486377063       24.4288263878        7.3329220613
  C        40.6324953967       17.1121390201        7.3246655757
  C        40.6540118743       17.1509774453        4.5154649361
  C        11.8830678977       14.0864608077        2.2906477936
  C        12.4723715682       12.9106883837        2.9949287724
  C        11.7147908877       12.1773896556        3.9209094131
  C        12.2813955420       11.0949327898        4.5893129099
  C        13.6202838956       10.7213701421        4.3576175065
  C        14.3583369671       11.4370777804        3.3969949773
  C        13.7929050564       12.5182461320        2.7243089726
  C        14.2538877421        9.6245980740        5.1279922051
  C        14.2524453230        9.6444500050        6.5498280419
  C        13.7426664580       10.7534400370        7.2969008946
  C        22.5129007848        3.2441335343       13.7481815068
  C        23.2306875490        4.3476339410       13.0491972091
  C        24.2272354244        4.0637538202       12.1036121193
  C        24.8585409955        5.1006333759       11.4216523286
  C        24.5092374928        6.4437754280       11.6651178359
  C        23.5408550578        6.7191745624       12.6477756704
  C        22.9047893827        5.6840056109       13.3281865830
  C        25.1190940026        7.5475762221       10.8888520653
  C        25.0907459196        7.5400507426        9.4673460159
  C        24.3838775608        6.5433686857        8.7221018134
  C        38.3050955694       31.9291388737       13.8429100203
  C        37.5821624023       30.8371532931       13.1306128658
  C        36.6228711630       31.1361217061       12.1513424167
  C        36.0134341972       30.1123562765       11.4313422025
  C        36.3489309394       28.7651404650       11.6695929985
  C        37.2791718106       28.4735201539       12.6847470689
  C        37.8925530292       29.4959167244       13.4034753207
  C        35.7510957705       27.6710111958       10.8729061370
  C        35.7757516372       27.6888173684        9.4516325068
  C        36.4790169394       28.6923029016        8.7132751002
  C        25.7161978303        8.6080553983        8.7466282632
  C        25.7187167628        8.6215418855       11.5588989704
  C        38.3284525068       31.9626602444        2.1600197539
  C        37.6057665155       30.8890118314        2.8997030149
  C        36.6787816239       31.1970194410        3.9069886496
  C        36.0691732617       30.1776006572        4.6354529216
  C        36.3725861992       28.8255552849        4.3793929561
  C        37.2762812193       28.5274945108        3.3413647033
  C        37.8882041981       29.5433953395        2.6143717518
  C        35.7668318492       27.7258629924        5.1637511265
  C        35.7839637982       27.7169331654        6.5853766907
  C        36.4829544842       28.7055941599        7.3468260276
  C        46.1352530448       26.6207004018        7.2866282862
  C        46.0878545463       26.5801740438        4.4787438291
  C        22.4608053085        3.2557017392        2.2628810245
  C        23.1551372841        4.3637001470        2.9861575543
  C        24.1578818800        4.0762760211        3.9258705524
  C        24.7867167391        5.1054607707        4.6222773504
  C        24.4330948244        6.4516804949        4.4014792018
  C        23.4533053905        6.7323634213        3.4303357731
  C        22.8197795447        5.7033969028        2.7343624977
  C        25.0662655259        7.5483976848        5.1754374607
  C        25.0635704359        7.5402119323        6.5982194012
  C        24.3691930812        6.5445035732        7.3555033470
  C        26.5718565740       17.8248722816       13.7877454455
  C        25.2696136252       17.8785520924       13.0579159328
  C        25.0354676096       18.8646591431       12.0876100520
  C        23.8262021205       18.8946474399       11.3964136656
  C        22.8214980732       17.9395193443       11.6518670802
  C        23.0541748702       16.9754257380       12.6504841182
  C        24.2633704852       16.9421283016       13.3419102505
  C        21.5541870921       17.9302598945       10.8824416369
  C        21.5591627587       17.9082173811        9.4605269984
  C        22.7666893923       17.7782248482        8.7042559782
  C        34.4349075009       17.1976870983       13.9170236349
  C        35.7267114536       17.1492932587       13.1685238388
  C        35.9253755203       16.1834590732       12.1691919291
  C        37.1053141772       16.1676376065       11.4304357252
  C        38.1187133473       17.1163391938       11.6712595695
  C        37.9211738333       18.0633044864       12.6939223027
  C        36.7384993445       18.0844203639       13.4301491546
  C        39.3742367387       17.1192318769       10.8870415637
  C        39.3721945766       17.1315400615        9.4655156588
  C        38.1668426426       17.2571092207        8.7051934998
  C        20.3151021325       17.9318033877        8.7489118727
  C        20.3282383139       17.9341722856       11.5613668237
  C        34.4711400501       17.2457854429        2.1866908857
  C        35.7748088466       17.1694709406        2.9095425194
  C        35.9906963477       16.1788662642        3.8788559387
  C        37.1775586971       16.1560940571        4.6056723127
  C        38.1760417871       17.1235721908        4.3821944103
  C        37.9665716897       18.0898330549        3.3810954305
  C        36.7775510593       18.1171566624        2.6570146273
  C        39.4224550601       17.1370035599        5.1783115606
  C        39.3970271668       17.1411776764        6.5991000223
  C        38.1780270947       17.2596759267        7.3386840717
  C        35.1550950150       26.6375646499        7.2899782702
  C        35.1724945799       26.6572519664        4.4813048928
  C        26.5684481154       17.8260055223        2.3322466018
  C        25.2529555698       17.8748607298        3.0350831847
  C        24.9896341221       18.8792474063        3.9785066243
  C        23.7716913139       18.9048630304        4.6517300674
  C        22.7882862888       17.9268770449        4.4028086113
  C        23.0454636185       16.9482535610        3.4259000983
  C        24.2645438614       16.9198854289        2.7519561390
  C        21.5235728348       17.9095970286        5.1724882507
  C        21.5431713711       17.8968587221        6.5935673911
  C        22.7589323569       17.7733159678        7.3382186671
  C        14.0456160153       17.8309922993        2.2904900365
  C        15.3510419287       17.8929559342        3.0097707648
  C        15.6086298051       18.9015665129        3.9510248562
  C        16.8186009144       18.9253502418        4.6409970792
  C        17.8027263728       17.9431545347        4.4108500390
  C        17.5508465691       16.9601320093        3.4356373516
  C        16.3404298115       16.9318140678        2.7471357809
  C        19.0690974063       17.9246257019        5.1812510825
  C        19.0622556450       17.9197027134        6.6031238148
  C        17.8521139215       17.8240786298        7.3598333585
  C        46.8067288205       17.2188530746        2.1640908621
  C        45.5184370585       17.1574064963        2.9115864727
  C        45.3142636364       16.1783509005        3.8960046942
  C        44.1339486998       16.1598893284        4.6338953912
  C        43.1292667777       17.1208656732        4.4087768568
  C        43.3310448976       18.0801482076        3.3982114822
  C        44.5118861378       18.1022539487        2.6610911205
  C        41.8764927026       17.1307175124        5.1965911984
  C        41.8804093129       17.1242532267        6.6183115695
  C        43.0883033167       17.2138863710        7.3792655506
  C        20.3065628779       17.9252363474        7.3147637556
  C        20.2941867953       17.9028792488        4.5019934788
  C        46.7847061909       17.2301931856       13.8851013228
  C        45.4800848219       17.1213434610       13.1719571842
  C        45.2610941615       16.1202791800       12.2135094223
  C        44.0725315664       16.0912020544       11.4881341171
  C        43.0735218066       17.0601127475       11.7043808543
  C        43.2822769779       18.0301768668       12.7024317063
  C        44.4720310585       18.0656334989       13.4227797425
  C        41.8283768245       17.0828470357       10.9055653333
  C        41.8558832673       17.0982596505        9.4846291597
  C        43.0767430115       17.1987958171        8.7456983415
  C        46.1530258258       26.6371795399        8.7211717461
  C        46.1623146462       26.6561803063       11.5308012829
  C        14.0415020203       17.8297514468       13.7021288617
  C        15.3572748315       17.9013433575       13.0054199477
  C        15.6269291133       18.9205704703       12.0801366549
  C        16.8520929505       18.9579386973       11.4192398163
  C        17.8328949322       17.9751966069       11.6592527450
  C        17.5694586231       16.9833221767       12.6211036976
  C        16.3464391447       16.9454492222       13.2856019956
  C        19.0988583030       17.9532566429       10.8908805471
  C        19.0779164918       17.9334638541        9.4698613927
  C        17.8598402745       17.8300975533        8.7259454150
  C        28.8096568730       14.0910261745        2.3949785357
  C        28.1960813741       12.9164437418        3.0818176622
  C        28.9249176486       12.1674829978        4.0173692266
  C        28.3276430362       11.0913920479        4.6690591381
  C        26.9874265522       10.7405991633        4.4091382215
  C        26.2798780180       11.4699990448        3.4369512660
  C        26.8752074604       12.5462261034        2.7834481015
  C        26.3212780723        9.6593631299        5.1711900029
  C        26.3165888356        9.6819402345        6.5923179238
  C        26.8292224216       10.7908438363        7.3378390462
  C        32.1745864103       21.2380093667        2.1527469649
  C        32.7703405066       22.4044451759        2.8703339574
  C        32.0219479520       23.0854791774        3.8423648904
  C        32.5930877418       24.1263089482        4.5681667143
  C        33.9281963491       24.5126717623        4.3424855375
  C        34.6592968335       23.8502934419        3.3386562340
  C        34.0902016110       22.8044897952        2.6145284886
  C        34.5592612878       25.5873331262        5.1416900016
  C        34.5567839381       25.5568346264        6.5631365943
  C        34.0448486205       24.4431464458        7.3012855309
  C        25.7063625941        8.6048833520        7.3119497290
  C        25.6799437985        8.6111456666        4.4986140818
  C        32.1145190708       21.2318592574       13.8833939348
  C        32.7146386919       22.3732294477       13.1291482011
  C        31.9710856108       23.0632715453       12.1586463784
  C        32.5577540028       24.0863311010       11.4170510104
  C        33.9001798006       24.4538053313       11.6332376494
  C        34.6275137666       23.7787145261       12.6318779342
  C        34.0467237444       22.7469352218       13.3649824035
  C        34.5402122143       25.5360985562       10.8502978328
  C        34.5448872057       25.5316868811        9.4289816126
  C        34.0374413488       24.4321818232        8.6678508044
  C        40.6197443195       17.1027513050        8.7589750764
  C        40.5965897254       17.1110969407       11.5685782389
  C        28.7492683809       14.0682845515       13.8112511309
  C        28.1419796859       12.9202487949       13.0719438065
  C        28.8853217758       12.2136030764       12.1141968429
  C        28.3079003205       11.1554214077       11.4160964136
  C        26.9713900220       10.7757770631       11.6524860782
  C        26.2444293426       11.4702325861       12.6373890059
  C        26.8199466244       12.5299695510       13.3360137801
  C        26.3329583992        9.6822217644       10.8807240490
  C        26.3249711926        9.6932092225        9.4589869068
  C        26.8315233757       10.7972073461        8.7036525425
  C        18.1356238220        3.1811110641        2.3224184183
  C        17.4063341413        4.2782902109        3.0210137844
  C        16.3905282109        3.9998758588        3.9484358082
  C        15.7426800483        5.0398238575        4.6118420754
  C        16.0945746189        6.3835711245        4.3722241877
  C        17.0839389814        6.6531472023        3.4084480414
  C        17.7331487149        5.6158355485        2.7434714338
  C        15.4701825709        7.4911993340        5.1352969445
  C        15.4853961294        7.4904381659        6.5570095976
  C        16.1868970671        6.4967752507        7.3101688420
  C        42.9460251618       31.8595736198        2.0779859025
  C        43.6463972263       30.7719174339        2.8219443797
  C        44.5918670460       31.0932433437        3.8080689426
  C        45.1975306735       30.0876676582        4.5557295435
  C        44.8711244396       28.7346100490        4.3408084331
  C        43.9454201551       28.4202914238        3.3274818305
  C        43.3366353144       29.4254407812        2.5794430509
  C        45.4885984697       27.6552743192        5.1440040686
  C        45.4926440547       27.6808664690        6.5656893034
  C        44.8055455719       28.6889303342        7.3122803525
  C        14.8564108812        8.5629162161        7.2693713891
  C        14.8750392475        8.5630411998        4.4567015119
  C        42.9464814192       31.9616934280       13.8038385881
  C        43.6917732253       30.8855649842       13.0904378033
  C        44.6560578784       31.1914755973       12.1178439187
  C        45.2775870709       30.1718944501       11.4001262663
  C        44.9540781833       28.8215617203       11.6380232885
  C        44.0209284558       28.5238909160       12.6491166118
  C        43.3926714071       29.5406565213       13.3612831592
  C        45.5629926692       27.7241519762       10.8527335699
  C        45.5330822477       27.7173640052        9.4314433781
  C        44.8268101234       28.7076122198        8.6784642767
  C        35.1504084380       26.6238968103        8.7243682769
  C        35.1543379386       26.5915083114       11.5342594880
  C        18.1484275172        3.2469751437       13.7015770232
  C        17.4298292885        4.3437271295       12.9922784242
  C        16.4146124068        4.0523814743       12.0687273439
  C        15.7663339522        5.0830180382       11.3933359698
  C        16.1209627450        6.4282717593       11.6160514488
  C        17.1123322905        6.7116752951       12.5733151483
  C        17.7600150113        5.6827985080       13.2531226897
  C        15.4903947286        7.5239230378       10.8436113116
  C        15.4963275535        7.5073051407        9.4224774699
  C        16.1930465729        6.5055739666        8.6757759238
  H        10.6723098599       12.4655785733       11.8995988237
  H        11.6945430375       10.5506748820       10.6577826675
  H        15.3918265205       11.1689169971       12.7667378976
  H        14.3513596703       13.0717161809       14.0118771014
  H        13.3763076239       11.6311328353        9.1962798531
  H        50.3225298928       22.7483836507       11.9816673008
  H        49.3193578351       24.6228010299       10.6755720141
  H        45.6421420806       24.1615825739       12.8589740665
  H        46.6631326492       22.2906226873       14.1673055969
  H        47.6294939230       23.5758161669        9.2411721481
  H        14.8721250623        8.5882642699       12.6035055873
  H        50.2868339529       22.7024463943        4.0656228882
  H        49.2688769915       24.5753130803        5.3657269112
  H        45.6104066173       24.1093502602        3.1510347727
  H        46.6526220422       22.2540278777        1.8366956782
  H        47.6074619824       23.5517288275        6.8020199500
  H        40.6614657346       17.1234194985        3.4275508716
  H        48.6872626996       14.0949854414       15.7950240169
  H        10.6812638283       12.4663532551        4.0981689303
  H        11.6895904103       10.5244163819        5.3019010506
  H        15.3938687029       11.1594222140        3.2112806566
  H        14.3653543005       13.0877909674        1.9960011559
  H        13.3760255405       11.6221352598        6.7582667316
  H        47.9302823837       14.2183538608        1.7158721070
  H        47.7801010942       14.3740920429       14.4904271757
  H        49.0841194158       18.5526747777        2.8726106017
  H        10.4161300129       14.1342465524        0.0038097166
  H        24.4846230916        3.0241691377       11.9134861641
  H        25.6313091825        4.8801083983       10.6884303273
  H        23.2637131004        7.7532165689       12.8421034679
  H        22.1349671509        5.8874994228       14.0685543325
  H        23.8215058551        5.7879822833        9.2631345539
  H        36.3797499804       32.1780559011       11.9568085615
  H        35.2685690886       30.3468617831       10.6740834356
  H        37.5457262751       27.4359647198       12.8751589152
  H        38.6364577276       29.2797130436       14.1665295704
  H        37.0471763861       29.4404460132        9.2583743690
  H        25.7521120389        8.6061763941       12.6467955805
  H        36.4575289809       32.2411124475        4.1165813866
  H        35.3452046153       30.4211346951        5.4099131457
  H        37.5215362617       27.4873438881        3.1372560106
  H        38.6091631070       29.3191131135        1.8320602297
  H        37.0553647731       29.4635714687        6.8198936056
  H        46.1094201512       26.5876258970        3.3907117315
  H        44.6683165970       35.1162226908       15.8088532114
  H        24.4352408107        3.0377666121        4.0918469094
  H        25.5681102961        4.8757121866        5.3435261492
  H        23.1688081378        7.7671842318        3.2508549708
  H        22.0476184443        5.9172739834        1.9989612585
  H        23.7950399150        5.7904475694        6.8249565038
  H        44.9539193709       34.3904280673        1.7002883709
  H        44.9017949449       34.2067716088       14.4855977763
  H        40.6659785352       33.2092534873        2.8582982753
  H        23.1505074249        1.9579394949        0.0104182778
  H        25.8155445375       19.5974223358       11.8921804653
  H        23.6446218935       19.6659865207       10.6510202410
  H        22.2883489296       16.2297541621       12.8540379274
  H        24.4568590995       16.1862340015       14.0994159376
  H        23.7045824351       17.6522269816        9.2372107451
  H        35.1379319349       15.4555252623       11.9866246440
  H        37.2619480042       15.4083726905       10.6671363893
  H        38.6955943194       18.8036548044       12.8839629301
  H        36.5701989302       18.8284164510       14.2055301701
  H        37.2286113148       17.3857599974        9.2370414306
  H        20.3321075981       17.9737716340       12.6491850808
  H        35.2086247111       15.4448527415        4.0580395563
  H        37.3459129538       15.3846940084        5.3540113685
  H        38.7319776020       18.8428703494        3.2051382061
  H        36.5925211032       18.8799521597        1.9043640083
  H        37.2483788507       17.3871806511        6.7913479101
  H        35.1405292868       26.6847445507        3.3937735761
  H        28.5049636801       21.0842573645       15.9867512814
  H        25.7521857842       19.6319811569        4.1652288046
  H        23.5662056173       19.6870589216        5.3793468752
  H        22.2932170339       16.1873058837        3.2283662870
  H        24.4805687195       16.1530316635        2.0118944889
  H        23.6908258629       17.6436783821        6.7960095843
  H        29.0264617447       21.7094242312        1.7594942660
  H        29.1459698711       21.7471705594       14.6140872399
  H        32.0765742388       18.5411085767        3.0074108998
  H        27.3382541616       19.0592290235        0.1000038485
  H        14.8499448842       19.6609011890        4.1266200345
  H        17.0164767121       19.7120472580        5.3658631423
  H        18.3022035129       16.1953152491        3.2501353719
  H        16.1319607806       16.1598926588        2.0102300831
  H        16.9109759440       17.7131916791        6.8292581093
  H        46.0974579489       15.4456145327        4.0755395404
  H        43.9749489118       15.3927519232        5.3885250134
  H        42.5627762175       18.8299564068        3.2211940566
  H        44.6850032237       18.8565297098        1.8970953449
  H        44.0310649081       17.3274497741        6.8517384866
  H        20.2911599978       17.9345383238        3.4139230942
  H        46.0383734726       15.3801083109       12.0377166904
  H        43.9058664528       15.3149235814       10.7444868256
  H        42.5157564117       18.7825339498       12.8761085744
  H        44.6549383542       18.8339216348       14.1700150573
  H        44.0106347464       17.2995648372        9.2910154656
  H        46.1993875017       26.6828398365       12.6182375182
  H        52.7413194239       21.0626694889        0.1997449409
  H        14.8668856473       19.6767983193       11.8968707683
  H        17.0629953989       19.7511412742       10.7052302565
  H        18.3198776711       16.2188946014       12.8117671674
  H        16.1259851565       16.1682949961       14.0133145612
  H        16.9244765414       17.7239311966        9.2672260573
  H        52.3228606534       21.6737338447       14.2893269494
  H        52.0136442347       21.7025971208        1.5005969378
  H        49.0673471704       18.6076854166       13.1989151456
  H        13.2476896529       19.0161618198       15.9713130477
  H        29.9574309089       12.4438778521        4.2189454535
  H        28.8942903629       10.5090096600        5.3924215530
  H        25.2441998682       11.2089679335        3.2291688109
  H        26.3271850865       13.1305990555        2.0483646729
  H        27.1953504234       11.6576800551        6.7961160154
  H        30.9967975738       22.7724489816        4.0246822055
  H        32.0080390071       24.6541274063        5.3181636838
  H        35.6927516427       24.1399377213        3.1596771598
  H        34.6593832518       22.2667533311        1.8597539588
  H        33.6802296677       23.5784565549        6.7541483465
  H        25.7046114144        8.5943543312        3.4104389985
  H        30.9309476809       22.7879229749       11.9983055079
  H        31.9752728107       24.6224027339       10.6707775846
  H        35.6663024338       24.0530442864       12.8040184485
  H        34.6115926069       22.2037461283       14.1191401301
  H        33.6664965456       23.5589826605        9.1968924427
  H        40.5877008929       17.0737590750       12.6562407587
  H        32.5093913532       14.1490931111        0.2580285841
  H        29.9184904282       12.5041477919       11.9378850647
  H        28.8921736388       10.6031925298       10.6831295097
  H        25.2100316366       11.1902158680       12.8260232107
  H        26.2556324538       13.0819330998       14.0840213072
  H        27.1982699483       11.6691417326        9.2372670125
  H        33.3040639336       14.2275981552       14.4532282584
  H        33.4075939334       14.4175839298        1.6034494537
  H        32.1385399472       18.5137170937       13.1853701556
  H        30.2241851283       14.1916860215        0.0787305916
  H        16.1184358006        2.9633703652        4.1347708746
  H        14.9531830785        4.8204278555        5.3274469676
  H        17.3663499373        7.6860291128        3.2153343494
  H        18.5151498170        5.8185587757        2.0156090893
  H        16.7534931232        5.7394590761        6.7766798680
  H        44.8281301202       32.1403238552        3.9823000605
  H        45.9373656855       30.3413876772        5.3117161910
  H        43.6828151433       27.3782140675        3.1572838599
  H        42.6001002623       29.1901433622        1.8146934870
  H        44.2302964481       29.4367601452        6.7739503791
  H        14.8514110427        8.5464035120        3.3684774194
  H        44.8994462665       32.2341640680       11.9262428783
  H        46.0243034749       30.4131283366       10.6467038481
  H        43.7642988974       27.4841319867       12.8409665751
  H        42.6465267185       29.3178826256       14.1200853154
  H        44.2683618425       29.4705514975        9.2130337641
  H        35.1187892695       26.6001545206       12.6220334428
  H        36.6051053321       35.1340658484        0.1857859967
  H        16.1435775429        3.0127975464       11.8989888419
  H        14.9740119533        4.8561817572       10.6832457968
  H        17.3958421396        7.7471499402       12.7501739166
  H        18.5429461864        5.8933252727       13.9777985699
  H        16.7644906206        5.7553352288        9.2142061787
  H        36.2784373494       34.4825531852       14.2679375325
  H        36.3809421534       34.2092576083        1.5048398061
  H        40.5809648004       33.2031756384       13.1481330722
  H        17.4709098094        1.9478442987       15.9690199446
  H        29.1554891416       19.4053522313        4.6168559283
  H        30.3233241830       19.9374901129       11.9581444927
  H        31.2267532456       15.5991111070       11.6212312812
  H        31.2554431074       15.5882614666        4.5058550062
  H        28.2308579173       17.9097864709        6.7453874762
  H        29.5014685078       15.4140263474        6.5022055463
  H        31.6843818306       19.4951070365       10.1827926566
  H        32.3206074454       17.3387690416        9.8322401579
  H        28.8613964404       16.1803880608        9.5921197680
  H        18.8532331978        0.8688358080        4.3404655482
  H        40.5279801214       35.2290034914       11.9468818268
  H        42.3245211341       34.4192819749       11.5850367353
  H        22.0875817325        0.6924380391        4.3566464658
  H        11.5967721999       18.7129706150        4.3877405795
  H        52.2648963789       18.4314615584       11.6722785887
  H        49.2553848137       16.4766724128       11.5790919903
  H        10.1511502572       15.7983016029        4.2975463191
  H        50.8501493471       17.6925433066       11.9489354442
  H        10.0465060819       17.3947156533        4.0570014368
  H        20.2145641276        0.0022224408        4.0471271744
  H        39.1836864076       36.1245176566       11.6814762590
 Ni        30.0502377219       17.6534620737       11.1613378987
 Ni        31.3304293361       16.3256508115        7.9109443291
 Ni        30.1848749544       18.3097242838        8.3259969759
 Ni        30.1384343652       17.4073436993        5.2460120632
  O        10.6498796794       14.3650778706       13.4806975953
  O        12.6131098976       14.6573821799       14.5787406217
  O        49.1479326795       16.8458919129       15.9845649920
  O        50.3501107597       20.9362122407       13.6429684778
  O        48.3484872990       20.5933368413       14.6608028374
  O        11.0513252787       17.0540038135       14.4955932237
  O        50.3207943837       20.8816936854        2.4120273349
  O        48.3466848889       20.5867497747        1.3321827224
  O        49.5436800993       18.2484325039        2.0733552676
  O        12.3590770476       18.6247773256        0.0047834703
  O        48.6932433132       14.1485674524       14.7462257039
  O         8.2099572434       14.2103001125        1.3275525698
  O        10.7353828979       14.5066730186        2.6694431149
  O        12.5717980175       14.5827156537        1.3336408448
  O        22.8445010440        2.0426439016       13.4821975022
  O        21.6059921480        3.5925004161       14.5840652006
  O        42.0583798714       34.1375635559       15.9739306730
  O        37.9819952174       33.1368719874       13.5671882303
  O        39.2189567647       31.5763757524       14.6623352000
  O        20.3083971957        1.0396486499       14.4970447700
  O        38.0247310162       33.1860733160        2.4201132539
  O        39.2194615606       31.5840034930        1.3312157801
  O        40.6523240734       33.7694996453        2.0653848938
  O        18.2555191979        1.3765705005        0.0018705665
  O        44.6222413232       35.1005213136       14.7536718810
  O        24.2054147458       -0.0000031897        1.3258798336
  O        22.7529423320        2.0575266433        2.5888155117
  O        21.6245603348        3.5961896383        1.3478688877
  O        27.4608247462       18.6907074560       13.4913911958
  O        26.6967443627       16.9092679351       14.6708517270
  O        30.6313750286       19.3526447168        0.0847077323
  O        33.5848691909       16.2783672440       13.6648690305
  O        34.2700700052       18.1724963469       14.7308255750
  O        29.5617251899       17.0646260777       14.5781800769
  O        33.6135350500       16.3277645915        2.4171949005
  O        34.3034058809       18.2465091030        1.4107940404
  O        31.6498260749       18.3142069044        2.1633520035
  O        30.3199221682       15.1579544318        0.0911241351
  O        28.5491888118       21.0352527807       14.9068499905
  O        28.5148952071       20.9556535187        1.4182783134
  O        27.4546629553       18.6787169645        2.6665004683
  O        26.6921272120       16.9266928916        1.4236236541
  O        13.1470621124       18.6934815239        2.5916088110
  O        13.9181560157       16.9160475118        1.4092281360
  O        50.5962597106       19.3503364064        0.0255532234
  O        47.6843369215       16.3266036639        2.4221695187
  O        46.9519508559       18.1757475254        1.3296703561
  O        11.0694649319       17.0157351093        1.4946632765
  O        47.6759167000       16.3356336059       13.6480539293
  O        46.9264445722       18.2358509380       14.6590429259
  O        49.5686849646       18.3177725961       13.9770423348
  O        10.3186716497       15.1000841499        0.0021873376
  O        52.6707437278       21.0279844811        1.2469000271
  O        12.1468014788       20.8913821258       14.6682185447
  O        13.1055629195       18.6141963909       13.3210165786
  O        13.9553723863       16.9866088174       14.6602747487
  O        29.9929043564       14.4401204013        2.7337858000
  O        28.0883529995       14.6536999439        1.4993665560
  O        32.1383904986       16.8587872052        0.0852902816
  O        30.9610262924       20.9495159960        2.4160077363
  O        32.9420577935       20.6031846972        1.3435210194
  O        29.5614526072       17.0757011193        1.5776883169
  O        30.8803176921       20.9566432458       13.6598539831
  O        32.8802761630       20.5895336490       14.6688783633
  O        31.6459695393       18.3007190341       13.9933113222
  O        28.2283399693       18.6727159670        0.0877403929
  O        32.4922753419       14.2140750283        1.3351002663
  O        32.4037199717       14.2153881348       14.8187840867
  O        29.9221108856       14.4416173941       13.4822875891
  O        28.0406862633       14.5872095547       14.7442255937
  O        17.8892643128        1.9666740894        2.6679000379
  O        18.9562512062        3.5271535249        1.4130403356
  O        39.1686099313       34.1388897948        0.0023048674
  O        43.2802757847       33.0589905126        2.3368424335
  O        42.0345918946       31.5064513961        1.2467790595
  O        20.3177705133        1.0369207438        1.4851504721
  O        43.2760823163       33.1826477596       13.5697998580
  O        42.0053235388       31.5840897308       14.5778669762
  O        40.5790681737       33.7750929499       13.9307966919
  O        22.3673680815        1.3847349651        0.0030560640
  O        36.6727678615       35.0998549758        1.2383778237
  O        16.4455935153        0.0642046895       14.6631245931
  O        17.9364577670        2.0432880812       13.3213065179
  O        18.9191076699        3.5931463408       14.6607499471
  O        29.6600775185       19.2523106215       12.1566104290
  O        29.7883906644       18.9015775919        4.0732104065
  O        31.2956329352       16.4154039435       12.1480563693
  O        31.2903089215       16.4284573483        4.0063927605
  O        32.5844150907       16.4086299814        9.4868714739
  O        29.7277507889       16.6223922588        9.5768225226
  O        30.3699867760       15.8175568515        6.3389390546
  O        31.7728321252       18.0985455175        7.0721580107
  O        31.3803510527       18.5966485982        9.9823111179
  O        29.1093766104       18.3163182890        6.6669586949
  O        39.4567897970       35.2438099340       11.9968674576
  O        19.1412180439        0.0044172808        3.9956515308
  O        41.9695832548       35.1726483087       12.0820258036
  O        21.6913224301       -0.0691035172        3.9010674833
  O        51.3649312182       18.6143727566       12.0001580234
  O        10.7509964995       18.7472386000        3.9101488831
  O        50.0797048031       16.4127133541       12.0865402879
  O         9.5249732699       16.4830144768        3.9963235509
 Zr         9.2974654455       16.0527772642       14.1772903781
 Zr        49.8370604021       16.0066539717        1.7514962887
 Zr        22.0733673357        0.0302103329       14.1838619632
 Zr        42.4610788549       35.1537966122        1.8062033560
 Zr        29.5481335332       19.1025410082       14.3205038864
 Zr        29.5610917881       19.1566267639        1.9058622356
 Zr        11.0382804346       19.0521236750        1.8329259725
 Zr        11.0442086737       19.1549997060       14.2457310874
 Zr        31.3448528469       16.1035791805        1.8839491214
 Zr        31.3863167804       16.0242093119       14.2918526687
 Zr        18.6013590370       -0.0007779431        1.7683396357
 Zr        18.5065965857       -0.0074026493       14.2087454000
 Zr        12.3021103816       16.3234736256       15.9853112676
 Zr        48.6173315456       18.8331443542        0.0151493881
 Zr        20.3154564650        2.4740019987       15.9853011990
 Zr        40.6440074663       32.6876074611       15.9733395299
 Zr        28.3276596304       16.3378818907        0.0847719240
 Zr        32.6148384049       18.8373336446        0.0685645906
  H        32.6075729034       18.5025165169        7.3622977282
  H        33.5264634085       16.4538629565        9.2553716474
  H        28.9580571774       17.0078144770       11.8317029807
