     576
 i =      227, E =     -4780.0256465429
  C        11.8588262359       14.0535495163       13.7364618965
  C        12.4563632015       12.8906538675       13.0180989980
  C        11.7046097204       12.1715855762       12.0766012801
  C        12.2810137765       11.1094011239       11.3842435403
  C        13.6216527630       10.7397857841       11.6118551440
  C        14.3549284884       11.4435789456       12.5850653010
  C        13.7820185539       12.5085489244       13.2765643815
  C        14.2611552227        9.6490836555       10.8384922216
  C        14.2565105010        9.6570033836        9.4167976432
  C        13.7433949005       10.7591599745        8.6629048814
  C        49.1269328957       21.2332011143       13.8745665626
  C        48.5502142756       22.4012096178       13.1474968922
  C        49.3002679154       23.0685375528       12.1665339177
  C        48.7333566744       24.1077102621       11.4333516717
  C        47.4028172455       24.5093479795       11.6619637449
  C        46.6718352264       23.8604590786       12.6754418921
  C        47.2342737765       22.8155359332       13.4047746632
  C        46.7725382601       25.5870309018       10.8646988905
  C        46.7615028220       25.5574279068        9.4429372040
  C        47.2614795078       24.4423518342        8.6994454265
  C        14.8603804889        8.5706205036        8.7035500655
  C        14.8918644321        8.5971139936       11.5151557222
  C        49.1133227669       21.2034737432        2.1504963186
  C        48.5279473705       22.3648570219        2.8776904012
  C        49.2672166615       23.0256232681        3.8705302645
  C        48.6908875824       24.0601942137        4.6019822027
  C        47.3604505221       24.4569057163        4.3638015897
  C        46.6399853940       23.8119287623        3.3403624436
  C        47.2135373328       22.7760095366        2.6085953858
  C        46.7219780817       25.5318760388        5.1548143505
  C        46.7336974666       25.5282400210        6.5765171328
  C        47.2491891210       24.4290480368        7.3328942425
  C        40.6325980496       17.1541843418        7.3287370531
  C        40.6530970267       17.1768321850        4.5200179460
  C        11.8830740146       14.0865714941        2.2906127846
  C        12.4724733966       12.9108567127        2.9949462866
  C        11.7148776572       12.1774258946        3.9208023588
  C        12.2815087292       11.0949872006        4.5892131307
  C        13.6204374291       10.7215330735        4.3576062397
  C        14.3585383795       11.4373888778        3.3971328106
  C        13.7930674071       12.5185452736        2.7244542811
  C        14.2540167733        9.6247347026        5.1279749807
  C        14.2527183442        9.6446720923        6.5498079149
  C        13.7428785317       10.7536491366        7.2968603468
  C        22.5107673189        3.2443947776       13.7476231076
  C        23.2227472192        4.3506227818       13.0468729673
  C        24.2183618716        4.0723607628       12.0988379620
  C        24.8422423936        5.1132286351       11.4159464310
  C        24.4860629498        6.4542838786       11.6611352643
  C        23.5186270926        6.7241121188       12.6461111952
  C        22.8900849242        5.6850760444       13.3272852714
  C        25.0894940493        7.5618113424       10.8854411922
  C        25.0621432538        7.5549425567        9.4639752911
  C        24.3595658457        6.5559272359        8.7178407911
  C        38.3028127788       31.9295763507       13.8442819417
  C        37.5739398721       30.8391434797       13.1356653310
  C        36.6144472331       31.1409387901       12.1572563389
  C        35.9990389082       30.1190412800       11.4396868793
  C        36.3284382958       28.7705948810       11.6792959280
  C        37.2577975701       28.4762621123       12.6945845632
  C        37.8774097818       29.4968081400       13.4108319161
  C        35.7290435539       27.6775018413       10.8818957445
  C        35.7625810601       27.6921093802        9.4607067584
  C        36.4684336815       28.6951736241        8.7243341383
  C        25.6861830705        8.6242854324        8.7441159751
  C        25.6857860961        8.6371009314       11.5562769838
  C        38.3293534321       31.9622976597        2.1617231701
  C        37.6093767194       30.8888838319        2.9045489295
  C        36.6821550820       31.1968837662        3.9117605464
  C        36.0740116390       30.1777843745        4.6421006835
  C        36.3788321670       28.8255127573        4.3883486583
  C        37.2836833523       28.5275219788        3.3511210333
  C        37.8940620585       29.5430407587        2.6222440378
  C        35.7725231337       27.7254363018        5.1722129550
  C        35.7845555838       27.7169750437        6.5941245069
  C        36.4786252627       28.7073045422        7.3578225413
  C        46.1356314486       26.6208441960        7.2866529920
  C        46.0880002404       26.5802200109        4.4787579717
  C        22.4601711491        3.2557975381        2.2624473337
  C        23.1528126964        4.3653888636        2.9851353112
  C        24.1546713667        4.0809065473        3.9265501126
  C        24.7809082547        5.1123023206        4.6221378204
  C        24.4253745960        6.4575104926        4.3985371088
  C        23.4466242855        6.7352945545        3.4256333008
  C        22.8156394974        5.7041286408        2.7306928656
  C        25.0544016185        7.5565119303        5.1726756935
  C        25.0447856965        7.5515447424        6.5953213296
  C        24.3493342203        6.5555605922        7.3512286247
  C        26.6181320152       17.8608742105       13.7813702397
  C        25.3122135599       17.9036804986       13.0557471420
  C        25.0574788743       18.8907356715       12.0903685380
  C        23.8451379609       18.9084645461       11.4035051658
  C        22.8507182986       17.9422508700       11.6587980966
  C        23.1021313156       16.9776766083       12.6530737484
  C        24.3163071462       16.9544167535       13.3378322229
  C        21.5781155193       17.9255558844       10.8936749842
  C        21.5784525572       17.9022641377        9.4709433559
  C        22.7838432891       17.7772089182        8.7102848733
  C        34.4419683741       17.1939987153       13.9200043898
  C        35.7362794306       17.1459296464       13.1794438056
  C        35.9457259441       16.1777938635       12.1847863333
  C        37.1228531127       16.1747781745       11.4420520436
  C        38.1245235394       17.1361281119       11.6785091153
  C        37.9194875506       18.0828871134       12.7000507168
  C        36.7377759135       18.0939096931       13.4370391420
  C        39.3780489540       17.1508902539       10.8916118989
  C        39.3735063567       17.1694911879        9.4702598403
  C        38.1664839729       17.2922082500        8.7123313681
  C        20.3318362375       17.9208055775        8.7622677596
  C        20.3528986780       17.9296476072       11.5755539448
  C        34.4746282757       17.2463162834        2.1880696965
  C        35.7775309069       17.1725731480        2.9099985901
  C        35.9893533304       16.1954984618        3.8940148888
  C        37.1747429799       16.1810927989        4.6233382556
  C        38.1761059997       17.1427231682        4.3870612360
  C        37.9708582388       18.0941253080        3.3706500750
  C        36.7831658513       18.1141761790        2.6448508345
  C        39.4216996227       17.1654078263        5.1838005117
  C        39.3961597938       17.1779337393        6.6047516119
  C        38.1776583987       17.2947792917        7.3455434713
  C        35.1553978601       26.6365693933        7.2974009426
  C        35.1815109709       26.6558044268        4.4883398822
  C        26.5715916827       17.8278242737        2.3284366366
  C        25.2558058634       17.8721612748        3.0332392404
  C        24.9907763582       18.8764951203        3.9765880304
  C        23.7739330271       18.8995354313        4.6523521830
  C        22.7920449427       17.9187992136        4.4069964513
  C        23.0507378617       16.9402218896        3.4302231720
  C        24.2688747175       16.9145096276        2.7536991333
  C        21.5287577631       17.8985987531        5.1806598338
  C        21.5528958649       17.8875603114        6.6022244816
  C        22.7712721204       17.7704372274        7.3439744213
  C        14.0468727973       17.8286564124        2.2941327412
  C        15.3511230631       17.8848254636        3.0194864742
  C        15.6076839929       18.8858549957        3.9694693137
  C        16.8166513162       18.9051536806        4.6624462740
  C        17.8035130088       17.9263196964        4.4276934458
  C        17.5517984338       16.9498768194        3.4453303523
  C        16.3422942689       16.9258563576        2.7540277931
  C        19.0726081812       17.9075006481        5.1965862334
  C        19.0714965715       17.9025759267        6.6190956678
  C        17.8645454440       17.8031903638        7.3803502691
  C        46.8063869675       17.2205290374        2.1651620297
  C        45.5184118160       17.1649986107        2.9140065366
  C        45.3125824128       16.1940928362        3.9061365985
  C        44.1324802577       16.1840791954        4.6448997845
  C        43.1290397880       17.1448028407        4.4124027710
  C        43.3323739281       18.0954611272        3.3940883874
  C        44.5132228393       18.1097298996        2.6568435184
  C        41.8761359908       17.1625900723        5.2002461380
  C        41.8802531180       17.1656043276        6.6218323113
  C        43.0885279641       17.2607887149        7.3814376008
  C        20.3183431508       17.9124124801        7.3273531430
  C        20.2967027160       17.8884584880        4.5141417379
  C        46.7861183596       17.2314835140       13.8850478682
  C        45.4820412246       17.1288766744       13.1716282326
  C        45.2614287349       16.1364990523       12.2048401376
  C        44.0728361468       16.1168585832       11.4794894539
  C        43.0764353290       17.0863990581       11.7046707705
  C        43.2866453185       18.0470265680       12.7112603411
  C        44.4763924050       18.0733666496       13.4312609973
  C        41.8313058632       17.1178307209       10.9073972451
  C        41.8574419793       17.1411960270        9.4869151957
  C        43.0777503473       17.2466881410        8.7478149278
  C        46.1534080362       26.6372708273        8.7212000337
  C        46.1625675007       26.6561314721       11.5308376931
  C        14.0458319200       17.8312859196       13.7033068389
  C        15.3668151444       17.9040474720       13.0126600787
  C        15.6413935428       18.9178800872       12.0826409748
  C        16.8705604953       18.9530915303       11.4279040515
  C        17.8530786569       17.9736505046       11.6772362053
  C        17.5853683667       16.9889444427       12.6455873602
  C        16.3582569902       16.9531240164       13.3037879154
  C        19.1205311289       17.9465832263       10.9084731970
  C        19.0966416008       17.9210538550        9.4870036045
  C        17.8768637780       17.8114002170        8.7463671069
  C        28.8087968704       14.0924040518        2.3953816607
  C        28.1948477341       12.9183868637        3.0812917368
  C        28.9169181103       12.1752234478        4.0266670613
  C        28.3156480366       11.1014321942        4.6782916134
  C        26.9782781951       10.7471760805        4.4085692517
  C        26.2780756639       11.4702625003        3.4263470340
  C        26.8771402690       12.5442357882        2.7730176737
  C        26.3075237096        9.6686125061        5.1700264511
  C        26.2939298747        9.6957608403        6.5910502408
  C        26.7995416397       10.8078635941        7.3366900758
  C        32.1794267316       21.2437114449        2.1494717671
  C        32.7759054602       22.4095315509        2.8662666865
  C        32.0301588154       23.0853929261        3.8442958476
  C        32.6032326967       24.1223816696        4.5739777826
  C        33.9372891757       24.5115668841        4.3458174982
  C        34.6651874644       23.8548267266        3.3357654261
  C        34.0947831308       22.8119065933        2.6083863921
  C        34.5683354594       25.5847565843        5.1472021103
  C        34.5631935125       25.5536044924        6.5687892129
  C        34.0565220307       24.4369782566        7.3060016822
  C        25.6820094859        8.6190246215        7.3096709630
  C        25.6709485512        8.6179612012        4.4965728748
  C        32.1034449678       21.2299850778       13.8846916277
  C        32.6974338514       22.3801636914       13.1413783401
  C        31.9664694513       23.0314597567       12.1354430077
  C        32.5493518456       24.0571369806       11.3945575860
  C        33.8759518891       24.4618017208       11.6420906019
  C        34.5891690861       23.8229674659       12.6747019653
  C        34.0119661346       22.7911209792       13.4102619168
  C        34.5176752635       25.5416746195       10.8573795010
  C        34.5367431998       25.5315545415        9.4355085264
  C        34.0433239658       24.4266593245        8.6726084551
  C        40.6206925252       17.1459066651        8.7626643936
  C        40.6005809073       17.1419461562       11.5721655202
  C        28.7363976761       14.0660912327       13.8141833162
  C        28.1249700802       12.9237559876       13.0727441585
  C        28.8647828018       12.2122908092       12.1156026364
  C        28.2804789586       11.1594097722       11.4155592405
  C        26.9411903460       10.7890673682       11.6506941892
  C        26.2181052412       11.4870727415       12.6358916657
  C        26.7999074579       12.5423835045       13.3354881797
  C        26.2984857508        9.6987199679       10.8784253874
  C        26.2912174298        9.7110481476        9.4568833099
  C        26.7965221325       10.8163659049        8.7025669446
  C        18.1353404905        3.1810017470        2.3222997416
  C        17.4060580035        4.2782241104        3.0208827254
  C        16.3904308290        3.9998802368        3.9485118246
  C        15.7427197763        5.0398808164        4.6119809826
  C        16.0945697816        6.3836103356        4.3722126280
  C        17.0838325832        6.6531109271        3.4083127568
  C        17.7328983824        5.6157526408        2.7432752565
  C        15.4702936512        7.4913233034        5.1352518795
  C        15.4855564095        7.4905952118        6.5569616149
  C        16.1870302061        6.4969273700        7.3101393571
  C        42.9459319940       31.8595146516        2.0780121283
  C        43.6462760968       30.7718861604        2.8220124806
  C        44.5917784074       31.0932152916        3.8081122447
  C        45.1974848748       30.0876643494        4.5557663321
  C        44.8710994376       28.7345912102        4.3408726873
  C        43.9453421717       28.4202518078        3.3275952737
  C        43.3365204613       29.4253920922        2.5795616658
  C        45.4887184746       27.6552998762        5.1440403831
  C        45.4928627383       27.6809300787        6.5657315158
  C        44.8057080550       28.6889256964        7.3123629792
  C        14.8566411126        8.5631066341        7.2693343842
  C        14.8751348592        8.5631698828        4.4566664494
  C        42.9464836650       31.9615654081       13.8038807437
  C        43.6917422996       30.8854809465       13.0904117315
  C        44.6562641576       31.1913952388       12.1180358799
  C        45.2778060924       30.1718076023       11.4003347032
  C        44.9541276904       28.8214730272       11.6380394299
  C        44.0207608574       28.5238100666       12.6489300173
  C        43.3924717602       29.5405701038       13.3610874757
  C        45.5631959626       27.7240957345       10.8527960401
  C        45.5334087610       27.7173999281        9.4315016337
  C        44.8269842521       28.7075583874        8.6785482340
  C        35.1431833619       26.6245206312        8.7320847163
  C        35.1248892134       26.6015620120       11.5416896823
  C        18.1484811164        3.2469896782       13.7014768990
  C        17.4298810112        4.3437997538       12.9922395968
  C        16.4147296396        4.0525324832       12.0685984258
  C        15.7664469495        5.0831774364       11.3932118223
  C        16.1210442211        6.4284198797       11.6160311845
  C        17.1123331660        6.7117931321       12.5733894752
  C        17.7599665551        5.6828726862       13.2531653411
  C        15.4906100780        7.5241283519       10.8435749162
  C        15.4965248126        7.5074815249        9.4224446058
  C        16.1932301329        6.5057421178        8.6757430214
  H        10.6724176138       12.4655889495       11.8997329958
  H        11.6947038700       10.5507756858       10.6578319148
  H        15.3920614652       11.1692232404       12.7665668129
  H        14.3515720311       13.0720136199       14.0117458916
  H        13.3764485636       11.6313001330        9.1962380695
  H        50.3229836230       22.7485046760       11.9818128687
  H        49.3198761475       24.6229997754       10.6758154638
  H        45.6423415347       24.1612363274       12.8585974316
  H        46.6632728753       22.2902753697       14.1668607015
  H        47.6301055604       23.5760144840        9.2411340808
  H        14.8721949740        8.5884001513       12.6034626170
  H        50.2873029590       22.7028438399        4.0653612619
  H        49.2693251315       24.5757194535        5.3654058901
  H        45.6105628394       24.1091401942        3.1513526515
  H        46.6527133787       22.2537946840        1.8370697511
  H        47.6080467731       23.5519675647        6.8019842983
  H        40.6599620463       17.1407525304        3.4323380801
  H        48.6870631924       14.0950692643       15.7949064359
  H        10.6813088244       12.4662897594        4.0979803561
  H        11.6896795899       10.5243781008        5.3017079800
  H        15.3941081472       11.1598267720        3.2114969033
  H        14.3655189593       13.0882227729        1.9962532016
  H        13.3761423747       11.6222891849        6.7582007065
  H        47.9302001954       14.2185850573        1.7160699582
  H        47.7801482248       14.3740379128       14.4901158469
  H        49.0844972625       18.5527104462        2.8727728427
  H        10.4161859215       14.1342913049        0.0038437821
  H        24.4808402624        3.0342440410       11.9074969922
  H        25.6145170932        4.8974946286       10.6807796103
  H        23.2362255297        7.7565099120       12.8415903774
  H        22.1207842188        5.8836563479       14.0694767310
  H        23.7974792825        5.7997879563        9.2581489904
  H        36.3761354460       32.1836686611       11.9611410543
  H        35.2547931414       30.3560685885       10.6825933235
  H        37.5193306892       27.4376901517       12.8864132509
  H        38.6209467333       29.2779285251       14.1735105032
  H        37.0329932174       29.4448328531        9.2710592425
  H        25.7198191753        8.6207141830       12.6441350670
  H        36.4589947459       32.2409202811        4.1196192860
  H        35.3494373093       30.4218652636        5.4158178341
  H        37.5306849851       27.4874580382        3.1486850587
  H        38.6152987389       29.3181725835        1.8403451963
  H        37.0521266423       29.4658366315        6.8328646779
  H        46.1094257081       26.5876068919        3.3907215538
  H        44.6681965183       35.1161547951       15.8088144540
  H        24.4332221503        3.0430464350        4.0946798111
  H        25.5613841773        4.8850274665        5.3451694493
  H        23.1606957937        7.7693836980        3.2442471605
  H        22.0440156762        5.9153806803        1.9939864727
  H        23.7787555020        5.7996521703        6.8194587103
  H        44.9535707799       34.3901821575        1.7001842207
  H        44.9014585924       34.2066880494       14.4855286024
  H        40.6660208334       33.2090398496        2.8582451899
  H        23.1503033496        1.9578732436        0.0102343761
  H        25.8206729160       19.6395726781       11.8911955317
  H        23.6540486504       19.6805358629       10.6612534281
  H        22.3466137241       16.2223410859       12.8596915871
  H        24.5203433781       16.1959525100       14.0900572490
  H        23.7249833193       17.6566181024        9.2389091396
  H        35.1700513053       15.4365953921       12.0065474999
  H        37.2837965077       15.4186916325       10.6767205265
  H        38.6860119570       18.8323005167       12.8863600030
  H        36.5610811128       18.8405697703       14.2078393075
  H        37.2256282434       17.4135215072        9.2418618141
  H        20.3594605086       17.9720350365       12.6633336273
  H        35.2053395085       15.4661551501        4.0837466213
  H        37.3388486008       15.4212925154        5.3842831281
  H        38.7385033528       18.8424070861        3.1845511908
  H        36.6013724506       18.8668181214        1.8813150689
  H        37.2456642101       17.4177870850        6.8013576866
  H        35.1514827847       26.6837937737        3.4007656205
  H        28.5091842048       21.0826620337       15.9737891881
  H        25.7510192408       19.6322689783        4.1609623029
  H        23.5685637123       19.6821863673        5.3795341134
  H        22.3006329648       16.1766173954        3.2347394901
  H        24.4848286072       16.1468354523        2.0144713950
  H        23.7025747756       17.6443564888        6.7998657872
  H        29.0012135258       21.7233454485        1.7656103819
  H        29.1518248473       21.7478147581       14.6126578424
  H        32.0837327803       18.5752062122        2.9949483319
  H        27.4000976444       19.0672033754        0.0883767525
  H        14.8492071090       19.6444214135        4.1495458037
  H        17.0117386761       19.6876465051        5.3926361596
  H        18.3032674065       16.1863847436        3.2547228800
  H        16.1365964792       16.1584994412        2.0115285359
  H        16.9219948697       17.6877783585        6.8531335648
  H        46.0943022948       15.4610844459        4.0911801116
  H        43.9725637052       15.4235258939        5.4059728662
  H        42.5654162926       18.8451819620        3.2110860138
  H        44.6875175204       18.8579934414        1.8872552366
  H        44.0304704321       17.3761814783        6.8528301925
  H        20.2905922889       17.9200584831        3.4260590800
  H        46.0371338747       15.3961327368       12.0229239248
  H        43.9038611689       15.3479202423       10.7287900921
  H        42.5215419151       18.7992666681       12.8915068713
  H        44.6616524711       18.8346097702       14.1850103784
  H        44.0114790361       17.3499958282        9.2929655125
  H        46.1994694602       26.6826907947       12.6182808598
  H        52.7413159763       21.0626947101        0.1998282633
  H        14.8817250046       19.6721213592       11.8894814761
  H        17.0824624155       19.7422702172       10.7097054337
  H        18.3352166966       16.2264180909       12.8460601479
  H        16.1364695329       16.1798299129       14.0352194889
  H        16.9435033555       17.7024140521        9.2904680012
  H        52.3228532043       21.6734023552       14.2890029716
  H        52.0134407253       21.7022110120        1.5007853228
  H        49.0679314692       18.6078660064       13.1989577092
  H        13.2478470826       19.0159901303       15.9721898984
  H        29.9469000311       12.4542997110        4.2369622344
  H        28.8767683713       10.5238841850        5.4097435467
  H        25.2446649712       11.2065089501        3.2109275114
  H        26.3341604597       13.1244676671        2.0310105926
  H        27.1644496401       11.6756749845        6.7955860108
  H        31.0056712100       22.7711672178        4.0286058055
  H        32.0202638519       24.6452590928        5.3290295801
  H        35.6976935499       24.1463530212        3.1543678117
  H        34.6625989661       22.2783173989        1.8496266102
  H        33.7011195652       23.5686574804        6.7586050700
  H        25.7018893596        8.5981297193        3.4086081818
  H        30.9438966710       22.7139922199       11.9426590308
  H        31.9758162508       24.5637052238       10.6213198990
  H        35.6161329041       24.1241659532       12.8709430730
  H        34.5682771063       22.2752806403       14.1895043672
  H        33.6781600078       23.5497846836        9.1996009013
  H        40.5928607276       17.0982390534       12.6595930962
  H        32.5146174039       14.1463221248        0.2744981101
  H        29.9016287153       12.4913823139       11.9419001902
  H        28.8611019140       10.6039506541       10.6821909914
  H        25.1818677833       11.2134071069       12.8236493727
  H        26.2385588324       13.0975770717       14.0833161783
  H        27.1579835888       11.6909325588        9.2357086885
  H        33.2987280684       14.1943693827       14.4361604921
  H        33.4086318504       14.4163832759        1.6128142024
  H        32.2847156192       18.6297431591       13.2576795852
  H        30.2220189605       14.1927931143        0.0861299940
  H        16.1184012880        2.9633821680        4.1349917738
  H        14.9533081114        4.8205150473        5.3276878278
  H        17.3661884798        7.6859887283        3.2151051480
  H        18.5148163175        5.8184047048        2.0153050472
  H        16.7535607316        5.7395590012        6.7766569870
  H        44.8280112748       32.1403001711        3.9823427040
  H        45.9373129770       30.3414041715        5.3117516034
  H        43.6826906644       27.3781770837        3.1574465349
  H        42.5999315138       29.1900404368        1.8148768277
  H        44.2302737970       29.4366322498        6.7740598333
  H        14.8514140735        8.5464646309        3.3684453475
  H        44.8997353985       32.2340805981       11.9265222617
  H        46.0246441245       30.4130303015       10.6470285821
  H        43.7639140656       27.4840692060       12.8405880257
  H        42.6460699572       29.3177512783       14.1196205335
  H        44.2684055316       29.4703968531        9.2131257655
  H        35.0796325748       26.6150768652       12.6290291656
  H        36.6050208871       35.1339950919        0.1857800980
  H        16.1436608877        3.0129610498       11.8988148023
  H        14.9741533671        4.8563559267       10.6830839531
  H        17.3957645803        7.7472653200       12.7503685176
  H        18.5427456499        5.8933219253       13.9780286878
  H        16.7646123223        5.7554630615        9.2141787254
  H        36.2782068929       34.4827464673       14.2679188620
  H        36.3803878205       34.2093893257        1.5049343259
  H        40.5802397672       33.2024697697       13.1484856550
  H        17.4706036136        1.9473049746       15.9690220111
  H        29.1682467441       19.4651623071        4.5381176011
  H        28.9517544685       19.3325931830       11.5301939191
  H        30.7000843165       15.3957983974       11.8318869926
  H        31.1900511033       15.5662532351        4.5465166321
  H        28.0160293283       18.3857840699        6.6581545251
  H        29.3688095300       15.3481157781        6.6978666572
  H        31.4850000198       19.8484944340       10.1834833306
  H        32.5625918041       17.8148812871        9.4827629376
  H        29.0848791655       16.9603910619        9.4226162147
  H        18.8535458454        0.8691647003        4.3403394787
  H        40.5278700138       35.2291179792       11.9469571203
  H        42.3240125653       34.4188509395       11.5854804900
  H        22.0878418053        0.6922313224        4.3566437627
  H        11.5969699619       18.7130700895        4.3876953874
  H        52.2650690130       18.4313213676       11.6721374865
  H        49.2551357092       16.4770907213       11.5795415403
  H        10.1509830250       15.7981642357        4.2974816752
  H        50.8502899077       17.6924664898       11.9491144328
  H        10.0465381930       17.3945453450        4.0570324156
  H        20.2148189335        0.0023868463        4.0471040973
  H        39.1835333223       36.1244434022       11.6813633209
 Ni        30.7290688659       17.6982221693       11.1575373651
 Ni        31.1550900453       16.4201818022        8.1571990370
 Ni        29.9296740458       18.9833064128        8.2442564006
 Ni        30.1866217187       17.5211112651        5.3331621518
  O        10.6499961469       14.3650815252       13.4807198383
  O        12.6132046019       14.6574996541       14.5788007135
  O        49.1481218009       16.8458542792       15.9846265122
  O        50.3503126149       20.9358080282       13.6429194479
  O        48.3485903773       20.5933624268       14.6607968667
  O        11.0518878155       17.0537853232       14.4955882251
  O        50.3210793455       20.8816695718        2.4119743903
  O        48.3467758995       20.5868402197        1.3322922522
  O        49.5438403360       18.2484331702        2.0733940426
  O        12.3591780134       18.6246595655        0.0048287453
  O        48.6932507944       14.1485821845       14.7461867293
  O         8.2098753566       14.2104089584        1.3276854607
  O        10.7354092063       14.5067146980        2.6694209222
  O        12.5718376278       14.5828143803        1.3335946451
  O        22.8445568297        2.0434988161       13.4820074199
  O        21.6051372332        3.5921616806       14.5849551537
  O        42.0582417537       34.1373913576       15.9738721102
  O        37.9817718378       33.1377283647       13.5673856343
  O        39.2184556044       31.5764468834       14.6618248037
  O        20.3084147563        1.0396144949       14.4969066183
  O        38.0248300182       33.1860055656        2.4202745458
  O        39.2192867396       31.5839422235        1.3314268518
  O        40.6523023685       33.7693781589        2.0653839631
  O        18.2553029319        1.3761541884        0.0018966822
  O        44.6222275241       35.1005504013       14.7536182118
  O        24.2054096956        0.0000239820        1.3259196124
  O        22.7529481188        2.0580188757        2.5889599496
  O        21.6241666708        3.5958502656        1.3472056090
  O        27.4918750155       18.7537027720       13.4948272767
  O        26.7663609684       16.9323605649       14.6500324053
  O        30.6684270916       19.4010448261        0.0650829205
  O        33.5878228496       16.2772003928       13.6610659905
  O        34.2704314744       18.1707199525       14.7297894550
  O        29.5817023752       17.0702708911       14.5696125495
  O        33.6152635956       16.3294007400        2.4189489891
  O        34.3047600226       18.2468077775        1.4121569187
  O        31.6549578255       18.3130352711        2.1633541216
  O        30.3255996905       15.1584959750        0.0931726265
  O        28.5530562433       21.0343587092       14.8991528595
  O        28.5137610649       20.9578758222        1.4161192577
  O        27.4571772621       18.6789947992        2.6638713847
  O        26.6955273928       16.9287313762        1.4167652020
  O        13.1489019413       18.6928479044        2.5925954367
  O        13.9193812321       16.9162230766        1.4100898749
  O        50.5965038405       19.3502951648        0.0255950311
  O        47.6831871737       16.3271855600        2.4225854136
  O        46.9522572279       18.1760807149        1.3293117237
  O        11.0699146771       17.0154720517        1.4947326384
  O        47.6758938012       16.3356033098       13.6478253727
  O        46.9285312346       18.2358861301       14.6603060857
  O        49.5689436793       18.3177285537       13.9772106526
  O        10.3187280620       15.1001272967        0.0021924453
  O        52.6707749472       21.0278685258        1.2469247926
  O        12.1468571774       20.8912031708       14.6681457436
  O        13.1084719778       18.6135493792       13.3204560519
  O        13.9571952949       16.9870117116       14.6603771108
  O        29.9932942751       14.4422640684        2.7369305592
  O        28.0900781491       14.6547523014        1.4986839810
  O        32.1375787731       16.8602705941        0.0886282434
  O        30.9663786484       20.9551909391        2.4123906365
  O        32.9477930043       20.6013525871        1.3456610006
  O        29.5697290175       17.0756558950        1.5826440730
  O        30.8757364266       20.9508324229       13.6622951806
  O        32.8815623773       20.5786606943       14.6609005319
  O        31.6726724074       18.2501038021       13.9078060691
  O        28.2896594087       18.6776607652        0.0796380420
  O        32.4935321104       14.2150505177        1.3415375826
  O        32.4064681777       14.2098703660       14.8207407432
  O        29.9141316762       14.4365795869       13.4842006375
  O        28.0390710063       14.5878729451       14.7488189823
  O        17.8892095782        1.9666247386        2.6679224253
  O        18.9561956948        3.5271303415        1.4131068205
  O        39.1686886056       34.1388817116        0.0023005256
  O        43.2802496819       33.0589826876        2.3368076459
  O        42.0345746503       31.5064465251        1.2467400323
  O        20.3176481656        1.0367201766        1.4853404649
  O        43.2761039767       33.1825867095       13.5697984878
  O        42.0052784819       31.5841212185       14.5778721396
  O        40.5789963856       33.7749869396       13.9307235852
  O        22.3672726166        1.3845493174        0.0030408619
  O        36.6727451521       35.0997959991        1.2383906228
  O        16.4455401702        0.0642630812       14.6631715181
  O        17.9364664205        2.0433576686       13.3212693497
  O        18.9189674104        3.5931225157       14.6608189989
  O        29.7021510100       19.0470301361       12.0830108503
  O        29.8229798353       18.9746521239        4.0060169934
  O        31.3120634077       16.1150985325       12.0834438577
  O        31.3005242951       16.4101681746        4.0671598692
  O        32.8335550487       16.8570505602        9.2520072543
  O        29.9441649435       16.5694428099        9.6779721066
  O        30.2058653864       15.8224010065        6.5740839410
  O        31.3950103593       18.0345752896        6.9945950716
  O        31.4353840158       18.9765857638        9.7531512916
  O        28.9696689957       18.5474080078        6.5880698460
  O        39.4567539764       35.2438155628       11.9968510829
  O        19.1415254964        0.0047007759        3.9956659939
  O        41.9696101384       35.1727275783       12.0820923545
  O        21.6914248098       -0.0692049330        3.9010444767
  O        51.3652162667       18.6143081787       12.0003088398
  O        10.7512061371       18.7471627884        3.9100546500
  O        50.0796479615       16.4127773152       12.0866412355
  O         9.5249111251       16.4829985401        3.9963188455
 Zr         9.2974738530       16.0527784618       14.1774350425
 Zr        49.8367316369       16.0066960427        1.7514316111
 Zr        22.0731858126        0.0297967424       14.1839734156
 Zr        42.4608891387       35.1534267420        1.8060257176
 Zr        29.5845750359       19.1113770163       14.2737487398
 Zr        29.5799747993       19.1767675384        1.8806155656
 Zr        11.0386341127       19.0518577920        1.8329156847
 Zr        11.0445267180       19.1547682095       14.2458116785
 Zr        31.3468438674       16.1070904453        1.9173914663
 Zr        31.4084954748       16.0048494304       14.3062979354
 Zr        18.6010273727       -0.0013545265        1.7685143116
 Zr        18.5063782037       -0.0077095965       14.2086334485
 Zr        12.3027440266       16.3236828585       15.9852403006
 Zr        48.6173899720       18.8333001569        0.0154540738
 Zr        20.3147603282        2.4732558227       15.9854416525
 Zr        40.6435046424       32.6871010636       15.9731921098
 Zr        28.3489301768       16.3484741433        0.0871828271
 Zr        32.6234293369       18.8409824777        0.0743127574
  H        32.3057650892       18.3655243997        6.9213754735
  H        32.8648756427       16.3936061766       10.1140488458
  H        28.8129750415       19.4496020759        9.1818993220
  H        31.5308939937       14.0797943780        8.6871631402
  H        31.0657452777       14.2957378649        9.2315284116
