     574
 i =      218, E =     -4778.8552695591
  C        11.8587775913       14.0535030214       13.7364648748
  C        12.4563047577       12.8906188118       13.0181231272
  C        11.7045503195       12.1715467562       12.0766203038
  C        12.2809586010       11.1093747092       11.3842524367
  C        13.6215872136       10.7397257046       11.6118856061
  C        14.3548318030       11.4434662528       12.5851604519
  C        13.7819263616       12.5084289413       13.2766744673
  C        14.2611198797        9.6490553037       10.8385105429
  C        14.2564472773        9.6569797530        9.4168202345
  C        13.7433586134       10.7591506619        8.6629325047
  C        49.1269479242       21.2332327757       13.8745568802
  C        48.5502397543       22.4012023246       13.1474785345
  C        49.3003033867       23.0685409927       12.1665218834
  C        48.7333789892       24.1077015975       11.4333341524
  C        47.4028426429       24.5093646168       11.6619610916
  C        46.6718942503       23.8605020158       12.6754858655
  C        47.2343311616       22.8155908644       13.4048287936
  C        46.7725591934       25.5870384393       10.8646865975
  C        46.7615318415       25.5574144793        9.4429236956
  C        47.2615560832       24.4423643638        8.6994206711
  C        14.8604044451        8.5706545965        8.7035635177
  C        14.8917983426        8.5970625322       11.5151684492
  C        49.1132861508       21.2034980626        2.1504364161
  C        48.5279270890       22.3648747918        2.8776036603
  C        49.2671832218       23.0256168553        3.8704719786
  C        48.6908503647       24.0601674265        4.6019422857
  C        47.3604306238       24.4569371853        4.3637385410
  C        46.6400182973       23.8120242506        3.3402148384
  C        47.2135657460       22.7761269789        2.6084189649
  C        46.7219575494       25.5318729125        5.1547915866
  C        46.7336915887       25.5282178973        6.5764963389
  C        47.2492586004       24.4290570720        7.3328677960
  C        40.6337584989       17.1502813168        7.3282879559
  C        40.6549387608       17.1779589057        4.5193480716
  C        11.8830856000       14.0865703198        2.2906110539
  C        12.4724529831       12.9108523718        2.9949287169
  C        11.7149231387       12.1775270477        3.9209297449
  C        12.2815410401       11.0950801870        4.5893349219
  C        13.6204221347       10.7215226493        4.3575929506
  C        14.3584512515       11.4372244442        3.3969409782
  C        13.7929736948       12.5183838142        2.7242751556
  C        14.2540067280        9.6247464240        5.1279840221
  C        14.2527197173        9.6446909408        6.5498201316
  C        13.7428405619       10.7536419818        7.2968883549
  C        22.5111430632        3.2439906736       13.7479780160
  C        23.2245194195        4.3492560397       13.0476164093
  C        24.2205734957        4.0691235439       12.1005976191
  C        24.8463580563        5.1087161487       11.4176916175
  C        24.4915161290        6.4502192329       11.6619948184
  C        23.5236753371        6.7219528741       12.6460367530
  C        22.8932788946        5.6841509202       13.3273036106
  C        25.0966615666        7.5565609011       10.8862569992
  C        25.0694692321        7.5494672360        9.4647989005
  C        24.3667299524        6.5507020545        8.7184718688
  C        38.3028368407       31.9298847534       13.8442411450
  C        37.5737245506       30.8400344853       13.1351790544
  C        36.6149946588       31.1429817118       12.1563962048
  C        35.9988070862       30.1218652037       11.4385169970
  C        36.3266151698       28.7730868382       11.6783063301
  C        37.2554646110       28.4776053326       12.6937242869
  C        37.8759316720       29.4974180821       13.4102520091
  C        35.7251083089       27.6809178675       10.8814334473
  C        35.7565088324       27.6958253606        9.4601836915
  C        36.4638507453       28.6972328425        8.7229714520
  C        25.6937054105        8.6187774178        8.7451537680
  C        25.6936396222        8.6312562718       11.5573882709
  C        38.3289726622       31.9618885350        2.1617132115
  C        37.6082879052       30.8883160137        2.9041377436
  C        36.6802861345       31.1964078509        3.9106563107
  C        36.0710792638       30.1774772767        4.6404047496
  C        36.3753824688       28.8249366844        4.3870795396
  C        37.2810663232       28.5268378854        3.3505661322
  C        37.8925293507       29.5422586266        2.6222022109
  C        35.7676138998       27.7255880312        5.1712729512
  C        35.7781863679       27.7188582225        6.5933217413
  C        36.4737453232       28.7086346979        7.3564469047
  C        46.1356135795       26.6208140804        7.2866361423
  C        46.0879301598       26.5801923455        4.4787413357
  C        22.4605546357        3.2557059702        2.2624512634
  C        23.1542553594        4.3646877906        2.9850421498
  C        24.1572291130        4.0791023348        3.9249815640
  C        24.7847241088        5.1096454563        4.6206883556
  C        24.4292643931        6.4551574517        4.3988408813
  C        23.4494297842        6.7340719489        3.4273345374
  C        22.8172596916        5.7037523068        2.7321691028
  C        25.0593718611        7.5533677231        5.1733149102
  C        25.0506616600        7.5474336673        6.5960208327
  C        24.3559086689        6.5509032089        7.3518342463
  C        26.6228543713       17.8598112961       13.7790457782
  C        25.3145617088       17.9051806584       13.0544449183
  C        25.0632936530       18.8906476559       12.0868343247
  C        23.8501592132       18.9108195054       11.4007205520
  C        22.8525223283       17.9483388785       11.6587326689
  C        23.1011639504       16.9856225443       12.6553053317
  C        24.3156673259       16.9604119334       13.3396632565
  C        21.5793359220       17.9314589653       10.8942762595
  C        21.5781441435       17.9028403992        9.4717029664
  C        22.7827809898       17.7747998644        8.7102219753
  C        34.4371955755       17.1974125327       13.9168003869
  C        35.7301990614       17.1492911403       13.1716923824
  C        35.9303890622       16.1893296201       12.1675488332
  C        37.1103319569       16.1807594512       11.4287985766
  C        38.1213766144       17.1299020991       11.6757724942
  C        37.9232621661       18.0697565067       12.7048959623
  C        36.7403398153       18.0846026484       13.4401384761
  C        39.3761208022       17.1412158282       10.8906177552
  C        39.3737737458       17.1650652165        9.4692898382
  C        38.1682122501       17.2975780522        8.7103099681
  C        20.3311577661       17.9191009554        8.7636902321
  C        20.3542840569       17.9375821064       11.5766426390
  C        34.4746568002       17.2480401202        2.1867543835
  C        35.7786061315       17.1757919568        2.9094212760
  C        35.9949279751       16.1931501361        3.8868369215
  C        37.1804272666       16.1794698436        4.6162933438
  C        38.1773970505       17.1473206016        4.3864923520
  C        37.9676289625       18.1046761796        3.3769636558
  C        36.7797693012       18.1236345928        2.6508964686
  C        39.4235123177       17.1680469938        5.1827347693
  C        39.3980567242       17.1789983873        6.6034109896
  C        38.1797071197       17.3019096263        7.3436228356
  C        35.1461230127       26.6406647823        7.2975177477
  C        35.1766027489       26.6552116452        4.4882824290
  C        26.5684671107       17.8248500278        2.3295560923
  C        25.2521747673       17.8717981731        3.0336669990
  C        24.9848743036       18.8782468221        3.9739904059
  C        23.7680512438       18.8998186578        4.6500428497
  C        22.7886703500       17.9159481222        4.4073853340
  C        23.0493322146       16.9356308197        3.4330079887
  C        24.2674943034       16.9111196729        2.7566098168
  C        21.5257610905       17.8945019918        5.1814718410
  C        21.5506577427       17.8829998584        6.6028472405
  C        22.7694744218       17.7657369955        7.3439530516
  C        14.0461539246       17.8280922752        2.2945265103
  C        15.3496373128       17.8827180711        3.0211288413
  C        15.6060833220       18.8829367359        3.9719194861
  C        16.8145534512       18.9008349862        4.6656991315
  C        17.8007383025       17.9214868469        4.4305862280
  C        17.5489549405       16.9455174858        3.4478601162
  C        16.3399110100       16.9228381682        2.7558440493
  C        19.0699351262       17.9022620273        5.1989955251
  C        19.0695327716       17.8970365573        6.6214101599
  C        17.8631071408       17.7967129889        7.3833791672
  C        46.8067306443       17.2203662563        2.1649464039
  C        45.5189641925       17.1643682055        2.9137620756
  C        45.3131755648       16.1921477667        3.9045659333
  C        44.1332589218       16.1814683003        4.6434739963
  C        43.1304059623       17.1430911522        4.4124618780
  C        43.3337066955       18.0951414039        3.3954804843
  C        44.5142566026       18.1098731167        2.6579084538
  C        41.8776460557       17.1605475743        5.2002195406
  C        41.8816179200       17.1604411922        6.6218423860
  C        43.0896792967       17.2514387292        7.3823949171
  C        20.3167442041       17.9080213516        7.3288600987
  C        20.2934689814       17.8842103029        4.5156347976
  C        46.7854301094       17.2306369755       13.8854443312
  C        45.4808063241       17.1247322818       13.1729719339
  C        45.2617748519       16.1302195360       12.2079080737
  C        44.0731201609       16.1068169414       11.4826445837
  C        43.0747034207       17.0745966433       11.7062324089
  C        43.2831588349       18.0371391075       12.7114495334
  C        44.4730833396       18.0673473856       13.4312503765
  C        41.8299234039       17.1042341251       10.9078105509
  C        41.8574082630       17.1298099981        9.4872717366
  C        43.0781878666       17.2342627682        8.7487543912
  C        46.1534042017       26.6372367259        8.7211837271
  C        46.1625492698       26.6561238469       11.5308247799
  C        14.0460218972       17.8317697039       13.7037130159
  C        15.3675318789       17.9058789781       13.0140199185
  C        15.6408407546       18.9187267736       12.0825546913
  C        16.8701842059       18.9548967624       11.4281935709
  C        17.8542139148       17.9775337623       11.6795684959
  C        17.5879981915       16.9942363881       12.6497255110
  C        16.3605770830       16.9573067165       13.3073543635
  C        19.1214314649       17.9504192584       10.9103425964
  C        19.0964060334       17.9201855749        9.4890214010
  C        17.8763091271       17.8070574621        8.7493398187
  C        28.8088543428       14.0924718507        2.3972095389
  C        28.1958078874       12.9185664387        3.0845978264
  C        28.9159097374       12.1827262355        4.0371955877
  C        28.3164568698       11.1069947360        4.6873373289
  C        26.9825974299       10.7447841573        4.4104747943
  C        26.2844883306       11.4615533752        3.4220677767
  C        26.8820589428       12.5365476451        2.7691542152
  C        26.3126284224        9.6654641872        5.1711211384
  C        26.2995665165        9.6917125986        6.5922017074
  C        26.8058008212       10.8030399644        7.3385389131
  C        32.1771325333       21.2389689603        2.1496194327
  C        32.7730298676       22.4052170418        2.8691509129
  C        32.0233067825       23.0876253182        3.8397137463
  C        32.5947113409       24.1260947471        4.5691175995
  C        33.9312671176       24.5108607297        4.3477635461
  C        34.6634965130       23.8473588939        3.3453133669
  C        34.0946156775       22.8030620056        2.6184345791
  C        34.5605783572       25.5862567597        5.1480673426
  C        34.5516791987       25.5583614986        6.5697017522
  C        34.0382956916       24.4456483226        7.3082598376
  C        25.6884117103        8.6144544447        7.3106422968
  C        25.6758182677        8.6149748845        4.4974707352
  C        32.1011266036       21.2265973077       13.8780612599
  C        32.6914697700       22.3784971403       13.1343295845
  C        31.9567866981       23.0415999240       12.1394511288
  C        32.5382421880       24.0708671766       11.4028298319
  C        33.8682317253       24.4673114669       11.6433052102
  C        34.5860481582       23.8180730832       12.6660542828
  C        34.0093290360       22.7831399845       13.3976322274
  C        34.5093981183       25.5477784701       10.8587458392
  C        34.5245649590       25.5389339807        9.4368000120
  C        34.0242189051       24.4364683956        8.6748558311
  C        40.6210877331       17.1386514698        8.7622803791
  C        40.5985756260       17.1271972362       11.5715440385
  C        28.7406524609       14.0653251886       13.8120755849
  C        28.1309269287       12.9201947001       13.0721696480
  C        28.8713828230       12.2094863229       12.1150856989
  C        28.2879571485       11.1552910277       11.4160267870
  C        26.9493350233       10.7832126532       11.6520856231
  C        26.2257861195       11.4804242942       12.6375005959
  C        26.8066493120       12.5368831752       13.3361710353
  C        26.3070712053        9.6926206953       10.8799033410
  C        26.2993977663        9.7048905114        9.4583750313
  C        26.8048268485       10.8101147096        8.7043070759
  C        18.1353507116        3.1810040845        2.3222988018
  C        17.4060376209        4.2782496921        3.0208692653
  C        16.3903682053        3.9998968873        3.9484412860
  C        15.7427012617        5.0399074878        4.6119451604
  C        16.0945873294        6.3836286789        4.3722104486
  C        17.0839049851        6.6531171999        3.4083687049
  C        17.7329470735        5.6157632851        2.7432945782
  C        15.4703334016        7.4913481775        5.1352702561
  C        15.4856017278        7.4906345300        6.5569801919
  C        16.1871020975        6.4969874247        7.3101592410
  C        42.9459447629       31.8595300855        2.0779792436
  C        43.6462635862       30.7718742526        2.8219985060
  C        44.5918089800       31.0931775624        3.8080601614
  C        45.1974682610       30.0876283799        4.5557563480
  C        44.8710576062       28.7345685028        4.3408530893
  C        43.9452287089       28.4202348205        3.3276433755
  C        43.3364557944       29.4253868106        2.5795816700
  C        45.4886602609       27.6552718720        5.1440270203
  C        45.4928107326       27.6808828372        6.5657182314
  C        44.8056581451       28.6888747333        7.3123559263
  C        14.8566550272        8.5631318811        7.2693477024
  C        14.8751407201        8.5631755361        4.4566855752
  C        42.9464428554       31.9615669474       13.8038495553
  C        43.6916805025       30.8854476161       13.0903693988
  C        44.6563025131       31.1913527588       12.1180931118
  C        45.2778500131       30.1717613223       11.4003948537
  C        44.9540593603       28.8214442405       11.6380141440
  C        44.0205186112       28.5237782180       12.6487363345
  C        43.3922277350       29.5405476830       13.3608845484
  C        45.5631320400       27.7240547501       10.8527776019
  C        45.5333726193       27.7173485724        9.4314841997
  C        44.8269450450       28.7075099457        8.6785398442
  C        35.1338122032       26.6296651534        8.7323037893
  C        35.1206570234       26.6056601571       11.5422015710
  C        18.1485292198        3.2469929042       13.7014795107
  C        17.4298756179        4.3438115073       12.9922619624
  C        16.4146993795        4.0525531925       12.0686561768
  C        15.7664046110        5.0831898792       11.3932669232
  C        16.1210544803        6.4284192765       11.6160429278
  C        17.1124082796        6.7118029721       12.5733257281
  C        17.7600519448        5.6828763894       13.2530907300
  C        15.4906245993        7.5241298259       10.8435796773
  C        15.4965312252        7.5075020942        9.4224505276
  C        16.1932858935        6.5057892420        8.6757615446
  H        10.6723710257       12.4655733196       11.8997215800
  H        11.6946522120       10.5507696749       10.6578235790
  H        15.3919395220       11.1690488417       12.7667201923
  H        14.3514786411       13.0718670084       14.0118814390
  H        13.3763479621       11.6312658525        9.1962592151
  H        50.3230108761       22.7484961376       11.9817683019
  H        49.3198939428       24.6229829529       10.6757856327
  H        45.6424198311       24.1613168465       12.8586820116
  H        46.6633210478       22.2903594121       14.1669213451
  H        47.6302193950       23.5760375406        9.2411027821
  H        14.8721412072        8.5883417983       12.6034746319
  H        50.2872496981       22.7028058544        4.0653402861
  H        49.2692862451       24.5756673436        5.3653844713
  H        45.6106349259       24.1093225239        3.1511265106
  H        46.6527539151       22.2539988126        1.8368311973
  H        47.6081462199       23.5519838759        6.8019676024
  H        40.6620961764       17.1436798987        3.4316167038
  H        48.6870922275       14.0949838132       15.7949301261
  H        10.6813877585       12.4664687968        4.0981874133
  H        11.6897423814       10.5245515887        5.3019190672
  H        15.3939563914       11.1595084073        3.2111634881
  H        14.3653681792       13.0879089196        1.9959076731
  H        13.3760955481       11.6222835628        6.7582354937
  H        47.9302612270       14.2183092134        1.7160916635
  H        47.7801066863       14.3737748235       14.4901067740
  H        49.0845196419       18.5528368816        2.8726851309
  H        10.4162218712       14.1342918271        0.0038043940
  H        24.4818214539        3.0305505921       11.9101351723
  H        25.6190530559        4.8917421213       10.6833378116
  H        23.2426349765        7.7548683824       12.8407116886
  H        22.1236982957        5.8840034105       14.0688637701
  H        23.8048975487        5.7942631269        9.2586192938
  H        36.3778503816       32.1859903271       11.9603972742
  H        35.2549494795       30.3596757222       10.6812985490
  H        37.5156791080       27.4387191990       12.8856533651
  H        38.6189809364       29.2777484639       14.1731860134
  H        37.0301664167       29.4460490901        9.2690565749
  H        25.7273453446        8.6146925520       12.6452489119
  H        36.4572599311       32.2404815388        4.1184938414
  H        35.3460163351       30.4219810410        5.4135363691
  H        37.5279738912       27.4867415663        3.1481273718
  H        38.6143161466       29.3169653013        1.8409118788
  H        37.0486990893       29.4657382441        6.8310261719
  H        46.1093468969       26.5876132634        3.3907056780
  H        44.6682292591       35.1161602506       15.8088660710
  H        24.4356892539        3.0410136795        4.0918292590
  H        25.5660549281        4.8814549356        5.3425128423
  H        23.1635947286        7.7684127824        3.2472446216
  H        22.0448407838        5.9159538193        1.9965635275
  H        23.7852729966        5.7950428758        6.8200470980
  H        44.9537607213       34.3903477172        1.7002715125
  H        44.9017203976       34.2067672359       14.4855371002
  H        40.6659053643       33.2089392818        2.8582130543
  H        23.1503523128        1.9577719252        0.0103308281
  H        25.8327191167       19.6334231526       11.8876760853
  H        23.6600347125       19.6821418461       10.6573373745
  H        22.3432009667       16.2333430646       12.8642078219
  H        24.5179578438       16.2035770076       14.0940324552
  H        23.7232423113       17.6549524403        9.2401067703
  H        35.1431258872       15.4632631676       11.9778489063
  H        37.2675421036       15.4281189280       10.6591891094
  H        38.6963330729       18.8103463976       12.8992800236
  H        36.5695378813       18.8245850103       14.2187040418
  H        37.2303826038       17.4274827528        9.2430083874
  H        20.3614867412       17.9838269527       12.6642630817
  H        35.2143568456       15.4579405757        4.0686131789
  H        37.3501058461       15.4143170751        5.3707617628
  H        38.7320938779       18.8573962174        3.1956265513
  H        36.5942354814       18.8797712460        1.8916503795
  H        37.2506925044       17.4335060711        6.7961817608
  H        35.1490034896       26.6809213398        3.4005713580
  H        28.5051154285       21.0657623478       15.9714496138
  H        25.7431241599       19.6366786469        4.1556980072
  H        23.5601704431       19.6839849409        5.3749131695
  H        22.3008843462       16.1698958251        3.2394543674
  H        24.4858565082       16.1421712603        2.0193715204
  H        23.6996148181       17.6387579942        6.7980307175
  H        29.0261335891       21.7073888422        1.7519349238
  H        29.1741062463       21.7299173612       14.6309197343
  H        32.0877344822       18.5586647383        3.0015159362
  H        27.3728352729       19.0212109993        0.0850509111
  H        14.8480164818       19.6419541564        4.1518014493
  H        17.0099162955       19.6826921551        5.3964895306
  H        18.3000587594       16.1816516040        3.2573235199
  H        16.1338783777       16.1560531631        2.0128527550
  H        16.9204289755       17.6795361471        6.8567586045
  H        46.0947206442       15.4586454187        4.0883356381
  H        43.9730203629       15.4197780610        5.4033342904
  H        42.5669379284       18.8453482290        3.2137386963
  H        44.6887236197       18.8589590519        1.8891767221
  H        44.0321617882       17.3660172889        6.8545916993
  H        20.2866675935       17.9164749351        3.4275815448
  H        46.0389301455       15.3911323937       12.0270079180
  H        43.9058808629       15.3361894834       10.7332789384
  H        42.5164639423       18.7879853995       12.8907194079
  H        44.6566350874       18.8302631999       14.1837454929
  H        44.0119237952       17.3344164457        9.2944843120
  H        46.1994404322       26.6826910849       12.6182683886
  H        52.7412993459       21.0626959572        0.1998132450
  H        14.8799336666       19.6713026953       11.8877878827
  H        17.0809028611       19.7430431169       10.7085130630
  H        18.3391732932       16.2334838918       12.8519720725
  H        16.1398289263       16.1848816923       14.0400243709
  H        16.9434938133       17.6978195060        9.2943297664
  H        52.3228999204       21.6734409910       14.2890063397
  H        52.0135027653       21.7022722973        1.5007999495
  H        49.0676907641       18.6077509603       13.1989344766
  H        13.2478809411       19.0161240553       15.9723488890
  H        29.9425211674       12.4690487557        4.2543119100
  H        28.8766663356       10.5343009174        5.4232732146
  H        25.2538527116       11.1916663155        3.2009607292
  H        26.3412921741       13.1113276887        2.0212765929
  H        27.1713149980       11.6707970099        6.7979251917
  H        30.9953799951       22.7794974686        4.0156876773
  H        32.0081083493       24.6548007061        5.3173363291
  H        35.6978323991       24.1355013204        3.1688523781
  H        34.6650446894       22.2652288490        1.8645706951
  H        33.6778314342       23.5793317387        6.7611522023
  H        25.7065322670        8.5954909014        3.4094917343
  H        30.9321473578       22.7318915211       11.9482934821
  H        31.9613549566       24.5854341976       10.6374722367
  H        35.6156853583       24.1132955266       12.8573004754
  H        34.5684826224       22.2592317408       14.1693911632
  H        33.6524755435       23.5629947012        9.2031018110
  H        40.5899604408       17.0805879542       12.6588367353
  H        32.5105639785       14.1542574655        0.2666059179
  H        29.9073577393       12.4911284306       11.9400986083
  H        28.8690709161       10.6004910000       10.6825252735
  H        25.1900908194       11.2052498169       12.8261016730
  H        26.2453299301       13.0917383055       14.0842872580
  H        27.1686760890       11.6831738707        9.2381164196
  H        33.2997661298       14.2015692746       14.4410703463
  H        33.4085466966       14.4132541660        1.6082096955
  H        32.1555131225       18.5729686948       13.2105889068
  H        30.2298328533       14.1941750736        0.0809503609
  H        16.1182970065        2.9634031924        4.1348795137
  H        14.9532629512        4.8205489507        5.3276232787
  H        17.3663094038        7.6859881329        3.2151917478
  H        18.5149058066        5.8183911222        2.0153581698
  H        16.7536296701        5.7396239476        6.7766665321
  H        44.8280794835       32.1402589833        3.9822609545
  H        45.9373481045       30.3413664676        5.3116908680
  H        43.6825564982       27.3781639548        3.1575011799
  H        42.5998309895       29.1900517555        1.8149212450
  H        44.2302549806       29.4366043777        6.7740512259
  H        14.8514127925        8.5464322791        3.3684622410
  H        44.8998849629       32.2340308823       11.9266722276
  H        46.0247901846       30.4129761809       10.6471879336
  H        43.7635451783       27.4840509385       12.8402915557
  H        42.6457027005       29.3177549438       14.1193075196
  H        44.2683990727       29.4703606696        9.2131355452
  H        35.0784890946       26.6181251376       12.6296782727
  H        36.6050543331       35.1340775876        0.1857056168
  H        16.1436178582        3.0129787342       11.8989283085
  H        14.9740906360        4.8563590332       10.6831685061
  H        17.3958966587        7.7472721965       12.7502354657
  H        18.5428983864        5.8933180838       13.9778874552
  H        16.7646617066        5.7555127703        9.2142041242
  H        36.2783795613       34.4826686403       14.2680839080
  H        36.3805180554       34.2093352294        1.5048387031
  H        40.5802573823       33.2024970002       13.1485235894
  H        17.4707083274        1.9476283460       15.9690242189
  H        29.0831833178       19.3812733601        4.5592804522
  H        29.9462046846       19.7868754770       11.6464745435
  H        30.6675351666       15.4981402185       11.8280816188
  H        31.0888320486       15.5482572026        4.4942437470
  H        28.0470787626       18.2789855473        6.8991735760
  H        29.0997006081       15.2307254195        6.3766027179
  H        32.0421194627       19.3440080498        9.3091128178
  H        32.4818506640       17.6660666214        7.7238760320
  H        28.9143040220       16.7807931709        9.3895351084
  H        18.8529990394        0.8688122624        4.3403598077
  H        40.5279540060       35.2289959134       11.9469562636
  H        42.3240977741       34.4188662238       11.5853923181
  H        22.0876492112        0.6922041385        4.3566926669
  H        11.5968502778       18.7131808297        4.3877324333
  H        52.2650182838       18.4312143679       11.6721136879
  H        49.2553051997       16.4770657121       11.5793559006
  H        10.1508935558       15.7981611364        4.2975430802
  H        50.8502725702       17.6924276583       11.9491445206
  H        10.0464823194       17.3945517909        4.0570359065
  H        20.2142114906        0.0021306388        4.0471553038
  H        39.1836290511       36.1243133958       11.6812200350
 Ni        30.8174060121       17.7442637515       10.8303462561
 Ni        30.8642645951       16.1006270480        7.9129919811
 Ni        30.0129248741       18.8949952643        8.1606573469
 Ni        30.1851862452       17.4776523315        5.4908647656
  O        10.6499649898       14.3650833169       13.4807104672
  O        12.6131822793       14.6575092310       14.5787938404
  O        49.1480706501       16.8458814568       15.9846080978
  O        50.3503258582       20.9357675085       13.6428955979
  O        48.3485952436       20.5933564622       14.6607683953
  O        11.0517764474       17.0538699761       14.4955931759
  O        50.3210406840       20.8816624592        2.4119508976
  O        48.3467777450       20.5867953765        1.3322459960
  O        49.5438158841       18.2484228152        2.0733324966
  O        12.3592490717       18.6247017955        0.0047806255
  O        48.6932565074       14.1485685601       14.7462058996
  O         8.2099115500       14.2104121458        1.3276602314
  O        10.7353968311       14.5067111205        2.6694143772
  O        12.5718384306       14.5827957520        1.3335650203
  O        22.8444449881        2.0430246052       13.4821512543
  O        21.6051815101        3.5920851620       14.5848422190
  O        42.0582046372       34.1373706362       15.9739188613
  O        37.9818261951       33.1380803903       13.5674911388
  O        39.2183836393       31.5764771182       14.6617896759
  O        20.3083801850        1.0395473196       14.4969678610
  O        38.0246236979       33.1856328470        2.4203517782
  O        39.2191628860       31.5837321334        1.3315670662
  O        40.6522641776       33.7693416430        2.0653949548
  O        18.2554937448        1.3766006654        0.0018929766
  O        44.6222286272       35.1005330641       14.7536575608
  O        24.2053972010        0.0000400080        1.3259422426
  O        22.7529664433        2.0578049507        2.5888948768
  O        21.6243031665        3.5959454101        1.3474735167
  O        27.4961030481       18.7508020393       13.4929607360
  O        26.7649178486       16.9286212466       14.6470708235
  O        30.6354067321       19.3499079872        0.0768441338
  O        33.5847095860       16.2789502057       13.6604167781
  O        34.2732567068       18.1697997515       14.7323101220
  O        29.5745646506       17.0621441741       14.5696318531
  O        33.6170245262       16.3306589233        2.4202286194
  O        34.3044330150       18.2475651401        1.4112758973
  O        31.6526669040       18.3133241196        2.1685183421
  O        30.3251899422       15.1606043574        0.0917540698
  O        28.5543331987       21.0277801647       14.8995389271
  O        28.5147020450       20.9502221397        1.4189522141
  O        27.4544592168       18.6773871802        2.6665183269
  O        26.6929097649       16.9261427431        1.4207810765
  O        13.1486889055       18.6928492702        2.5926060019
  O        13.9191092847       16.9161608440        1.4099606364
  O        50.5964803884       19.3503119645        0.0254578419
  O        47.6834945532       16.3270618199        2.4224537478
  O        46.9523435664       18.1760454119        1.3292387278
  O        11.0698820930       17.0155142727        1.4947165764
  O        47.6760038405       16.3355820985       13.6479430679
  O        46.9276912678       18.2357896304       14.6598290896
  O        49.5688551726       18.3177196709       13.9771325684
  O        10.3187158818       15.1001263726        0.0022032577
  O        52.6707712963       21.0278733856        1.2469177764
  O        12.1468425082       20.8912016261       14.6681436694
  O        13.1084507374       18.6135598357       13.3204588342
  O        13.9572381647       16.9870579568       14.6603513458
  O        29.9931225465       14.4422869220        2.7384219782
  O        28.0897442822       14.6532501126        1.5003899042
  O        32.1365576312       16.8538447008        0.0926729262
  O        30.9636422959       20.9503180077        2.4156561610
  O        32.9441940450       20.6018299891        1.3431907924
  O        29.5686415124       17.0724650949        1.5847388732
  O        30.8697221329       20.9431768714       13.6570477009
  O        32.8747660658       20.5854413751       14.6620584950
  O        31.6861864144       18.2497899358       13.9952411695
  O        28.2618049440       18.6313304787        0.0850387040
  O        32.4923842108       14.2154156127        1.3391667141
  O        32.4048216839       14.2131022769       14.8193067476
  O        29.9167035809       14.4382673540       13.4799504561
  O        28.0407432044       14.5851761415       14.7460593139
  O        17.8892201340        1.9666439759        2.6679556164
  O        18.9562012186        3.5271751950        1.4131344805
  O        39.1685918413       34.1388645789        0.0022740253
  O        43.2802557861       33.0589628011        2.3368276087
  O        42.0345472078       31.5064276368        1.2467532015
  O        20.3176047001        1.0366556952        1.4853330788
  O        43.2761018323       33.1825681868       13.5697967640
  O        42.0053062231       31.5840801573       14.5778979909
  O        40.5790323120       33.7749715406       13.9307842869
  O        22.3672580848        1.3845213569        0.0031054587
  O        36.6727406361       35.0998149284        1.2383696707
  O        16.4455629235        0.0643313114       14.6632356648
  O        17.9364727063        2.0433865334       13.3212606021
  O        18.9189861496        3.5931273832       14.6608248745
  O        29.8655547681       18.9166330114       12.0781743404
  O        29.7855847596       18.9067788550        4.0772855343
  O        31.2170264741       16.2656548549       12.0731108739
  O        31.2956397943       16.4105391251        4.0815081504
  O        32.6534321002       16.9883737297        8.4951773971
  O        29.8332620550       17.0602827146        9.2411234080
  O        29.9929230753       15.6059419991        6.3351227556
  O        31.5459748564       18.4659589111        6.8222749910
  O        31.1300033884       19.3442568219        9.6496996842
  O        28.9297503089       18.6100332357        6.6662475588
  O        39.4567942131       35.2437288404       11.9968527709
  O        19.1409886430        0.0043508916        3.9956782005
  O        41.9696152610       35.1726590521       12.0820689409
  O        21.6912916771       -0.0692322100        3.9010404650
  O        51.3652012442       18.6143044275       12.0003197643
  O        10.7511164397       18.7472046733        3.9100480951
  O        50.0797448942       16.4127473923       12.0865779805
  O         9.5248598476       16.4830037456        3.9963177006
 Zr         9.2973708368       16.0527572879       14.1773888491
 Zr        49.8367905702       16.0066539662        1.7514220091
 Zr        22.0732177758        0.0297741397       14.1839864347
 Zr        42.4609006239       35.1534389382        1.8061324130
 Zr        29.5928095624       19.0823348119       14.2759973900
 Zr        29.5665715046       19.1566967999        1.9073869649
 Zr        11.0384604703       19.0519318271        1.8328316959
 Zr        11.0444621607       19.1548211669       14.2457561894
 Zr        31.3489687029       16.1083418027        1.9209756545
 Zr        31.4025143438       16.0161788958       14.2864000625
 Zr        18.6010232724       -0.0014013910        1.7684086135
 Zr        18.5064538256       -0.0075512649       14.2086177029
 Zr        12.3025786916       16.3236445701       15.9851420951
 Zr        48.6172881682       18.8333089096        0.0152174240
 Zr        20.3149248567        2.4733362091       15.9854889585
 Zr        40.6434796479       32.6871251242       15.9732443636
 Zr        28.3475741498       16.3422872828        0.0871934684
 Zr        32.6153961978       18.8299557625        0.0656653942
  H        31.8340890266       19.2427924707        6.3097690747
  H        33.4539257267       16.4783832292        8.2899896048
  H        28.8977043861       19.4019046734        8.9198961167
