     574
 i =      303, E =     -4778.8578186209
  C        11.8588076922       14.0535632656       13.7364616280
  C        12.4563138805       12.8906126463       13.0181267831
  C        11.7045115021       12.1714627571       12.0767364622
  C        12.2808685044       11.1092281517       11.3844088077
  C        13.6215456674       10.7397005540       11.6119213971
  C        14.3548855130       11.4435580176       12.5850349405
  C        13.7820017354       12.5085706558       13.2764942380
  C        14.2610143143        9.6489715261       10.8385637038
  C        14.2563864682        9.6569092473        9.4168689347
  C        13.7432771044       10.7590869440        8.6630039449
  C        49.1269348051       21.2332674946       13.8745783920
  C        48.5501791907       22.4012587773       13.1474550131
  C        49.3002327201       23.0686074655       12.1665015623
  C        48.7333239645       24.1077991255       11.4333327771
  C        47.4027584959       24.5093691329       11.6618929048
  C        46.6717770369       23.8604648865       12.6753578878
  C        47.2342056269       22.8155183764       13.4046708495
  C        46.7724596384       25.5870585989       10.8646391226
  C        46.7613961023       25.5574441565        9.4428781449
  C        47.2613284332       24.4423355283        8.6994085695
  C        14.8602228918        8.5705177490        8.7036025319
  C        14.8916942864        8.5969794957       11.5152093924
  C        49.1132697745       21.2034344117        2.1505177904
  C        48.5278595356       22.3647741761        2.8777621488
  C        49.2671231101       23.0255595878        3.8705861754
  C        48.6907913586       24.0601487298        4.6020079365
  C        47.3603603335       24.4568377552        4.3637895307
  C        46.6398822715       23.8118252518        3.3403868683
  C        47.2134450763       22.7758896477        2.6086574950
  C        46.7218585894       25.5318051912        5.1547696961
  C        46.7335739200       25.5282031127        6.5764675527
  C        47.2490349215       24.4290099322        7.3328604452
  C        40.6337802750       17.1503076451        7.3285835192
  C        40.6551987722       17.1785495557        4.5197851519
  C        11.8830591127       14.0866182096        2.2906458512
  C        12.4724879448       12.9109373995        2.9950504242
  C        11.7148359429       12.1774247263        3.9207891724
  C        12.2814499042       11.0949821839        4.5892133565
  C        13.6204164543       10.7216138645        4.3577119721
  C        14.3586195196       11.4376168448        3.3974290165
  C        13.7931607019       12.5187789235        2.7247451045
  C        14.2539375887        9.6247552076        5.1280549821
  C        14.2526520906        9.6446630255        6.5498874996
  C        13.7427813568       10.7536138949        7.2969603409
  C        22.5095459517        3.2436593381       13.7476001827
  C        23.2196918014        4.3498424312       13.0458869511
  C        24.2144865556        4.0717125076       12.0971209679
  C        24.8367613959        5.1129018071       11.4135473030
  C        24.4793264226        6.4533831200       11.6593754877
  C        23.5126081706        6.7230893664       12.6449133458
  C        22.8857260736        5.6837687279       13.3267472413
  C        25.0816053771        7.5612239691       10.8842034973
  C        25.0545969839        7.5547665119        9.4628885106
  C        24.3524297850        6.5559301638        8.7161285595
  C        38.3029325091       31.9284603951       13.8436036724
  C        37.5748408891       30.8372595891       13.1342700860
  C        36.6162301982       31.1380467686       12.1545942761
  C        36.0014074340       30.1156601568       11.4369102571
  C        36.3300175217       28.7670430784       11.6773211934
  C        37.2586661979       28.4737220406       12.6936748746
  C        37.8777720145       29.4948109029       13.4099785950
  C        35.7307855798       27.6736430415       10.8792764297
  C        35.7649631467       27.6888371213        9.4578604203
  C        36.4715065682       28.6917140811        8.7218138224
  C        25.6787817380        8.6244296552        8.7439559858
  C        25.6767776191        8.6362833520       11.5561383392
  C        38.3292213624       31.9624854376        2.1612263612
  C        37.6087912535       30.8891338198        2.9032705602
  C        36.6830721063       31.1971791407        3.9117841189
  C        36.0747659063       30.1779467998        4.6416755104
  C        36.3780806367       28.8257874149        4.3858642331
  C        37.2811651937       28.5277540100        3.3471663321
  C        37.8918138611       29.5434184323        2.6188611298
  C        35.7717814092       27.7255624530        5.1691663540
  C        35.7858007619       27.7157372253        6.5909975429
  C        36.4811703626       28.7047643580        7.3552427273
  C        46.1355073644       26.6208158046        7.2865810447
  C        46.0879509834       26.5801719819        4.4786916219
  C        22.4598265749        3.2556282877        2.2621480152
  C        23.1519135763        4.3656132940        2.9845720992
  C        24.1539915006        4.0818147496        3.9258693577
  C        24.7793585940        5.1137728346        4.6213186738
  C        24.4225704109        6.4585535901        4.3974599458
  C        23.4438155642        6.7357304409        3.4244873959
  C        22.8136960022        5.7039849021        2.7297156825
  C        25.0502744962        7.5578057956        5.1720562493
  C        25.0390362005        7.5524878457        6.5945943178
  C        24.3430285913        6.5561601537        7.3495325592
  C        26.6191286595       17.8603097925       13.7772049503
  C        25.3124084594       17.9049922935       13.0518511103
  C        25.0564611930       18.8917650487       12.0866387551
  C        23.8435683698       18.9083428208       11.4003470933
  C        22.8496689285       17.9419825429       11.6573498814
  C        23.1019093554       16.9784573731       12.6522682446
  C        24.3167724540       16.9559440784       13.3356207065
  C        21.5766019256       17.9234088234       10.8933143975
  C        21.5763525205       17.8957467558        9.4708670845
  C        22.7813498950       17.7680480430        8.7101447894
  C        34.4383753752       17.1962189847       13.9185032791
  C        35.7326547328       17.1478312567       13.1754499875
  C        35.9410625765       16.1792250081       12.1812407283
  C        37.1197266641       16.1725397752       11.4406846662
  C        38.1232109865       17.1320299782       11.6772568561
  C        37.9185726880       18.0801501766       12.6975893331
  C        36.7361218055       18.0934645545       13.4337017797
  C        39.3774458670       17.1446366361       10.8911646128
  C        39.3739929847       17.1624325269        9.4697516236
  C        38.1673269452       17.2827945868        8.7108637712
  C        20.3297047376       17.9130720927        8.7625066243
  C        20.3517609202       17.9294525955       11.5756745347
  C        34.4762238695       17.2473231851        2.1853601813
  C        35.7802013677       17.1746183450        2.9074990289
  C        35.9957840110       16.1911625261        3.8842474018
  C        37.1810066705       16.1760942820        4.6140201093
  C        38.1781791587       17.1438852990        4.3856310314
  C        37.9691809050       18.1023485852        3.3767963974
  C        36.7817409622       18.1224744436        2.6501600189
  C        39.4236310037       17.1650733867        5.1829182021
  C        39.3978348002       17.1739059973        6.6037833236
  C        38.1787580112       17.2867677138        7.3441499942
  C        35.1565931822       26.6351597151        7.2935849285
  C        35.1787333506       26.6575401617        4.4845233269
  C        26.5675945142       17.8254834705        2.3300922926
  C        25.2523741202       17.8707698316        3.0347849359
  C        24.9915501989       18.8693255109        3.9852398809
  C        23.7741314045       18.8919557633        4.6599485509
  C        22.7891492813       17.9162160319        4.4074431008
  C        23.0444204836       16.9432026644        3.4242216911
  C        24.2624915579       16.9182359066        2.7480121141
  C        21.5262305138       17.8938027778        5.1810165428
  C        21.5503512247       17.8789263173        6.6024545655
  C        22.7687011688       17.7598389939        7.3439335982
  C        14.0462749449       17.8283469466        2.2942137763
  C        15.3499982980       17.8834559241        3.0200559597
  C        15.6061202100       18.8829959503        3.9716405186
  C        16.8147690861       18.9009521357        4.6650734694
  C        17.8013654066       17.9223114633        4.4287930123
  C        17.5500870022       16.9473537464        3.4449291760
  C        16.3408459729       16.9245546597        2.7533575428
  C        19.0702613120       17.9021251289        5.1975290414
  C        19.0691159273       17.8946006249        6.6198977871
  C        17.8623361905       17.7941860381        7.3812760346
  C        46.8067593253       17.2206339174        2.1651480691
  C        45.5191858326       17.1654433627        2.9143303834
  C        45.3130784974       16.1936044891        3.9054325636
  C        44.1332512550       16.1837769932        4.6445055731
  C        43.1307595501       17.1457128278        4.4132167182
  C        43.3344693633       18.0975552883        3.3961532335
  C        44.5150014946       18.1115555759        2.6585320720
  C        41.8778469703       17.1628565004        5.2007152820
  C        41.8816469579       17.1635379941        6.6222355660
  C        43.0896562861       17.2579769368        7.3823834604
  C        20.3160277129       17.9036219308        7.3277723259
  C        20.2940664709       17.8853552141        4.5147651545
  C        46.7859145119       17.2312170972       13.8852694570
  C        45.4816178228       17.1275569539       13.1722637235
  C        45.2614407085       16.1343585934       12.2062019222
  C        44.0728189857       16.1134812471       11.4809421537
  C        43.0758174672       17.0825147615       11.7055759201
  C        43.2855347965       18.0439623714       12.7114861854
  C        44.4753824857       18.0715553088       13.4313666781
  C        41.8308871701       17.1128645585       10.9078212362
  C        41.8578119228       17.1363089022        9.4873221150
  C        43.0783943872       17.2425821679        8.7487309405
  C        46.1532917910       26.6372718155        8.7211242034
  C        46.1625037970       26.6561801443       11.5307562829
  C        14.0455513851       17.8312464093       13.7034976048
  C        15.3664310311       17.9038385037       13.0130486862
  C        15.6403084984       18.9162422291       12.0813295017
  C        16.8693866565       18.9509094594       11.4265124288
  C        17.8522256581       17.9723534561       11.6777543837
  C        17.5853609385       16.9893802015       12.6480104145
  C        16.3582931942       16.9540015769       13.3061412018
  C        19.1192975733       17.9439360622       10.9087910719
  C        19.0947653906       17.9147097144        9.4874709730
  C        17.8748409494       17.8032746842        8.7472885334
  C        28.8072626947       14.0915389514        2.3966434941
  C        28.1915426934       12.9195767270        3.0849718546
  C        28.9111535529       12.1807592656        4.0355639117
  C        28.3094602490       11.1066038736        4.6862040138
  C        26.9740937101       10.7488970665        4.4110408287
  C        26.2760933431       11.4688767807        3.4250747474
  C        26.8758255988       12.5426568922        2.7721243859
  C        26.3027658045        9.6701051569        5.1710736004
  C        26.2876142797        9.6968694688        6.5919672812
  C        26.7927417843       10.8085974490        7.3385235712
  C        32.1759528423       21.2417013502        2.1499969436
  C        32.7724205501       22.4086461080        2.8661290369
  C        32.0274835198       23.0836256234        3.8452390031
  C        32.6005973911       24.1221824579        4.5729258081
  C        33.9336641744       24.5130291881        4.3418641839
  C        34.6606474847       23.8568944519        3.3308037145
  C        34.0900884510       22.8128849152        2.6051188355
  C        34.5659607445       25.5859382396        5.1426655051
  C        34.5632747800       25.5534200044        6.5641116916
  C        34.0572148243       24.4359858180        7.3001437052
  C        25.6754315293        8.6198554297        7.3096711603
  C        25.6673424546        8.6193366400        4.4967477361
  C        32.1004868864       21.2242113190       13.8789991351
  C        32.6967316637       22.3692282472       13.1273291654
  C        31.9693468750       23.0169380180       12.1163163598
  C        32.5527775153       24.0450890209       11.3786622024
  C        33.8764549930       24.4555544481       11.6337113508
  C        34.5865525622       23.8181972645       12.6693926264
  C        34.0087230409       22.7847979986       13.4023042835
  C        34.5185043367       25.5377669661       10.8524167133
  C        34.5384302439       25.5287939096        9.4306500522
  C        34.0449159057       24.4249048727        8.6665350809
  C        40.6213640266       17.1404014044        8.7625575597
  C        40.5998247959       17.1363538263       11.5720593949
  C        28.7304059739       14.0609970879       13.8170338425
  C        28.1166632969       12.9203504829       13.0747790259
  C        28.8581985891       12.2048861512       12.1219754324
  C        28.2728305724       11.1534611384       11.4206576552
  C        26.9315547442       10.7881128468       11.6516612076
  C        26.2067705265       11.4896983365       12.6330110912
  C        26.7892917364       12.5443283638       13.3331166380
  C        26.2892583575        9.6980772554       10.8789743205
  C        26.2833081412        9.7106689906        9.4576663903
  C        26.7895060349       10.8160848690        8.7043132123
  C        18.1352706187        3.1810010351        2.3223424900
  C        17.4059301306        4.2781962023        3.0208943264
  C        16.3902394847        3.9998418888        3.9484563780
  C        15.7424964859        5.0398257069        4.6119249075
  C        16.0943434235        6.3835655755        4.3721947091
  C        17.0836476375        6.6530838319        3.4083338755
  C        17.7327378436        5.6157411817        2.7432969618
  C        15.4701077348        7.4912781461        5.1352731443
  C        15.4853467471        7.4905006031        6.5569846526
  C        16.1867751682        6.4967906846        7.3101493004
  C        42.9459038862       31.8595032585        2.0780100551
  C        43.6462558716       30.7718750373        2.8219606068
  C        44.5917761535       31.0931843217        3.8080524118
  C        45.1974922163       30.0876278476        4.5556847526
  C        44.8710894401       28.7345620763        4.3407755669
  C        43.9453269460       28.4202354532        3.3275013887
  C        43.3364952124       29.4253825548        2.5794951673
  C        45.4886749071       27.6552664440        5.1439497127
  C        45.4927778950       27.6809072647        6.5656372579
  C        44.8056240462       28.6889203150        7.3122444030
  C        14.8564962929        8.5630350272        7.2693855416
  C        14.8750091991        8.5631824215        4.4567173504
  C        42.9464727223       31.9615282646       13.8038227013
  C        43.6916884130       30.8854699432       13.0903400343
  C        44.6561495780       31.1914086587       12.1179097399
  C        45.2776298596       30.1718240579       11.4001599854
  C        44.9540090025       28.8214860898       11.6379249405
  C        44.0206452936       28.5238241641       12.6488193845
  C        43.3924005734       29.5405644482       13.3610312329
  C        45.5630873441       27.7241117330       10.8526966822
  C        45.5332612349       27.7173910923        9.4314071042
  C        44.8268964652       28.7075738345        8.6784285861
  C        35.1451282085       26.6220673398        8.7282740181
  C        35.1255969574       26.5972699096       11.5379106167
  C        18.1484434325        3.2469365017       13.7014310830
  C        17.4298010402        4.3437075195       12.9922064168
  C        16.4146874149        4.0524126494       12.0685343524
  C        15.7663643906        5.0830455508       11.3931735822
  C        16.1208589439        6.4283035242       11.6160567232
  C        17.1120895821        6.7116930057       12.5734733243
  C        17.7597617159        5.6827934119       13.2532312345
  C        15.4904414761        7.5240092230       10.8436039326
  C        15.4963463573        7.5073538992        9.4224759434
  C        16.1929799371        6.5055777567        8.6757541518
  H        10.6722918740       12.4654156513       11.8999508864
  H        11.6945048505       10.5505248717       10.6580974753
  H        15.3920339894       11.1692193331       12.7664797937
  H        14.3515939948       13.0721151934       14.0115820784
  H        13.3762879646       11.6311943367        9.1963616025
  H        50.3229715448       22.7486219086       11.9818146530
  H        49.3198676125       24.6231071042       10.6758264373
  H        45.6422748992       24.1612229880       12.8584862754
  H        46.6631924968       22.2902274346       14.1667265711
  H        47.6299876875       23.5760256412        9.2411170389
  H        14.8720191200        8.5882486640       12.6035160191
  H        50.2872208420       22.7028061925        4.0653988283
  H        49.2692376828       24.5757078484        5.3654013888
  H        45.6104637593       24.1090389068        3.1513632955
  H        46.6526501920       22.2536624557        1.8371215823
  H        47.6078822672       23.5519220811        6.8019589319
  H        40.6625396382       17.1450858138        3.4320304560
  H        48.6870863664       14.0950325407       15.7949113056
  H        10.6812180092       12.4661918044        4.0978370918
  H        11.6895647121       10.5242759989        5.3015866354
  H        15.3942339298       11.1601371334        3.2119119166
  H        14.3656544953       13.0885478082        1.9966509317
  H        13.3760444518       11.6222572120        6.7583029383
  H        47.9302120566       14.2184134904        1.7160261611
  H        47.7801215080       14.3738375627       14.4901234113
  H        49.0844766587       18.5527623445        2.8727122860
  H        10.4161844710       14.1342859389        0.0038256606
  H        24.4773891459        3.0336780593       11.9059543412
  H        25.6086279404        4.8981045153       10.6776878031
  H        23.2297057788        7.7553699134       12.8402221595
  H        22.1168488938        5.8813543849       14.0696106966
  H        23.7900856973        5.7996072261        9.2559179617
  H        36.3778291084       32.1805828284       11.9574725823
  H        35.2579196288       30.3526887249       10.6790656452
  H        37.5202078718       27.4353577168       12.8866816664
  H        38.6205725101       29.2759478022       14.1734021963
  H        37.0368116067       29.4406286469        9.2687947011
  H        25.7101007903        8.6193461522       12.6440010141
  H        36.4613209589       32.2412492895        4.1209369955
  H        35.3513238910       30.4217376188        5.4165349205
  H        37.5265770275       27.4876071664        3.1432547779
  H        38.6118782616       29.3188407956        1.8358142205
  H        37.0551481434       29.4632028565        6.8306490789
  H        46.1094195720       26.5875527841        3.3906581379
  H        44.6682042175       35.1161566941       15.8088614771
  H        24.4331895195        3.0441486963        4.0941169270
  H        25.5599344450        4.8873540149        5.3445106527
  H        23.1571808678        7.7696091793        3.2430177869
  H        22.0418964234        5.9143622263        1.9929520423
  H        23.7728714389        5.8004769509        6.8169880232
  H        44.9536873048       34.3902683760        1.7002172708
  H        44.9018246878       34.2068373548       14.4854947503
  H        40.6659604333       33.2088767807        2.8581070846
  H        23.1501882003        1.9577341599        0.0102242520
  H        25.8188004737       19.6417780379       11.8883159239
  H        23.6513155434       19.6799580618       10.6578563278
  H        22.3463564611       16.2235936043       12.8605408845
  H        24.5220181645       16.1984921862       14.0885280087
  H        23.7220811094       17.6485129285        9.2395626781
  H        35.1625781704       15.4414858376       12.0013678709
  H        37.2807212087       15.4145767950       10.6771585409
  H        38.6864443309       18.8280735578       12.8844579101
  H        36.5604633690       18.8397235713       14.2051942671
  H        37.2269045634       17.4009534610        9.2415527435
  H        20.3586093073       17.9752477569       12.6633128197
  H        35.2146572833       15.4568824294        4.0670911105
  H        37.3485861650       15.4108110670        5.3687603853
  H        38.7337494622       18.8552949673        3.1968596532
  H        36.5967154946       18.8797851647        1.8919788158
  H        37.2473851567       17.4074999444        6.7984251267
  H        35.1471604629       26.6871576340        3.3970421538
  H        28.5070748922       21.0721982402       15.9741292512
  H        25.7557037393       19.6189554282        4.1784037930
  H        23.5716225788       19.6701976484        5.3926268772
  H        22.2917738103       16.1834665791        3.2235399533
  H        24.4766042903       16.1551068890        2.0035642459
  H        23.6996015392       17.6337604042        6.7991763516
  H        29.0067055950       21.7154937933        1.7638749426
  H        29.1686021732       21.7320052284       14.6226906597
  H        32.0875218431       18.5735544441        2.9972461823
  H        27.3718295155       19.0307126664        0.0860577658
  H        14.8476611988       19.6413930607        4.1524651815
  H        17.0099475617       19.6821691743        5.3965997303
  H        18.3017104348       16.1842541624        3.2533944525
  H        16.1350581202       16.1584676747        2.0095962954
  H        16.9197969629       17.6782416847        6.8541332193
  H        46.0942652570       15.4597323687        4.0892515118
  H        43.9726871079       15.4224685321        5.4046822773
  H        42.5680292214       18.8480880058        3.2143502035
  H        44.6898598251       18.8604647814        1.8897141500
  H        44.0317581003       17.3740448332        6.8542045276
  H        20.2877101352       17.9202301280        3.4267927516
  H        46.0375813528       15.3943551372       12.0246809824
  H        43.9042917268       15.3439243995       10.7307736771
  H        42.5199552904       18.7957998687       12.8913850228
  H        44.6602127959       18.8334298736       14.1845878676
  H        44.0118912096       17.3456589753        9.2943143180
  H        46.1994475466       26.6827889330       12.6181968633
  H        52.7413556607       21.0627260572        0.1998241144
  H        14.8801823049       19.6696961951       11.8869414971
  H        17.0809482888       19.7387525134       10.7067510360
  H        18.3357931401       16.2278114348       12.8498921784
  H        16.1368055739       16.1820115598       14.0390194210
  H        16.9416833888       17.6943305910        9.2917453123
  H        52.3232067164       21.6735487864       14.2888922494
  H        52.0137732709       21.7025010281        1.5008291244
  H        49.0677923179       18.6078206093       13.1989367804
  H        13.2479553983       19.0160433574       15.9722655482
  H        29.9393728733       12.4632302092        4.2502674339
  H        28.8689560691       10.5311943752        5.4205924920
  H        25.2440871016       11.2025683153        3.2060367812
  H        26.3353087593       13.1204813520        2.0264177115
  H        27.1582742817       11.6761349773        6.7975172977
  H        31.0040480970       22.7672127067        4.0322552939
  H        32.0181051245       24.6445582467        5.3287135751
  H        35.6924020789       24.1497497377        3.1472632002
  H        34.6567245891       22.2797120205        1.8451781718
  H        33.7003722179       23.5688743778        6.7518004765
  H        25.6997494318        8.5995348452        3.4088291023
  H        30.9481374683       22.6977153379       11.9190170283
  H        31.9806489950       24.5501696134       10.6033725128
  H        35.6113419425       24.1230460630       12.8714505691
  H        34.5616347468       22.2721145590       14.1860806003
  H        33.6786015327       23.5485174015        9.1930336059
  H        40.5916668967       17.0932590106       12.6595086622
  H        32.5158918459       14.1469737553        0.2679206386
  H        29.8971837115       12.4794951231       11.9538434613
  H        28.8541892296       10.5943640189       10.6905976737
  H        25.1691556343       11.2189872217       12.8175184408
  H        26.2274736721       13.1026468454       14.0783561268
  H        27.1517767284       11.6892722076        9.2390088147
  H        33.2995118730       14.1976595391       14.4386000647
  H        33.4083581285       14.4151357755        1.6123202268
  H        32.2106109545       18.5915359922       13.2450290000
  H        30.2275646498       14.1888980111        0.0873102593
  H        16.1181684844        2.9633487759        4.1348941478
  H        14.9530160227        4.8204381471        5.3275511802
  H        17.3659531952        7.6859768212        3.2151167733
  H        18.5146591637        5.8184172995        2.0153365137
  H        16.7532179537        5.7393656349        6.7766543342
  H        44.8280354685       32.1402627364        3.9822866451
  H        45.9373540987       30.3413513136        5.3116427893
  H        43.6826939161       27.3781634740        3.1573183878
  H        42.5999025829       29.1900457154        1.8148116528
  H        44.2302382033       29.4366548374        6.7739294960
  H        14.8512628492        8.5465121770        3.3684953508
  H        44.8995950314       32.2340987037       11.9263744240
  H        46.0244342705       30.4130498211       10.6468236175
  H        43.7638362574       27.4840798452       12.8404908887
  H        42.6460134298       29.3177472941       14.1195782271
  H        44.2683136193       29.4704187277        9.2129922274
  H        35.0794221032       26.6102358414       12.6252423299
  H        36.6049247153       35.1339805548        0.1857470036
  H        16.1436750516        3.0128346769       11.8987074311
  H        14.9740748449        4.8561984580       10.6830502255
  H        17.3953866732        7.7471867178       12.7505456469
  H        18.5424596710        5.8932598767       13.9781776425
  H        16.7643185094        5.7552527446        9.2141703720
  H        36.2778681040       34.4829406307       14.2677895361
  H        36.3798564796       34.2096549255        1.5050300430
  H        40.5802021629       33.2022825715       13.1484248221
  H        17.4705376140        1.9474889346       15.9689053773
  H        29.0596739824       19.2602999443        4.5559220464
  H        29.1081886764       19.3435156079       11.5477541686
  H        30.5550474682       15.4437402625       11.9992230349
  H        31.2175162776       15.4698613930        4.5014259801
  H        27.9824794460       17.9282973971        6.6587517984
  H        29.2845756087       15.0780373647        6.5708357511
  H        32.2218481793       19.9697969400       10.0121802352
  H        32.4519312465       18.4442158559        9.5081246170
  H        28.7139874349       17.0025879851        9.3089751255
  H        18.8528055088        0.8687475665        4.3403488968
  H        40.5280131984       35.2292226834       11.9469977660
  H        42.3238250781       34.4187878534       11.5855193755
  H        22.0876518724        0.6920034962        4.3568090934
  H        11.5968860625       18.7130639561        4.3877324701
  H        52.2650382727       18.4313173055       11.6720991072
  H        49.2550911062       16.4770953017       11.5795040256
  H        10.1504077469       15.7982870199        4.2977754333
  H        50.8502652670       17.6924969099       11.9491177658
  H        10.0462778635       17.3946161577        4.0570002324
  H        20.2139445597        0.0020659457        4.0471933194
  H        39.1835495413       36.1245449758       11.6814993935
 Ni        30.7401225255       17.6383873305       10.9079270982
 Ni        30.9845446052       16.1854394469        8.0783310919
 Ni        29.9217035883       18.8557082009        8.0785511559
 Ni        30.1826145153       17.3742922627        5.3293399991
  O        10.6499950265       14.3651083397       13.4807079754
  O        12.6131981272       14.6574738674       14.5788002036
  O        49.1481354205       16.8458594427       15.9845858138
  O        50.3502838623       20.9358642736       13.6428754130
  O        48.3485867004       20.5933733338       14.6607688179
  O        11.0517778014       17.0538804592       14.4955856221
  O        50.3210177371       20.8816651751        2.4119886196
  O        48.3467716726       20.5868147001        1.3322628298
  O        49.5438409229       18.2484440114        2.0733606295
  O        12.3592720001       18.6247429132        0.0048112203
  O        48.6932687193       14.1485683515       14.7461859977
  O         8.2098915396       14.2103958496        1.3276580563
  O        10.7353830351       14.5067378774        2.6694294582
  O        12.5718366661       14.5827862658        1.3336128451
  O        22.8443691491        2.0431069850       13.4821589946
  O        21.6045742580        3.5917172610       14.5853973068
  O        42.0581801862       34.1373079831       15.9739140913
  O        37.9817678028       33.1366690329       13.5670936763
  O        39.2183596532       31.5760234836       14.6617047262
  O        20.3082742786        1.0393465341       14.4968794826
  O        38.0248697110       33.1861021080        2.4201595817
  O        39.2193968575       31.5840602712        1.3312466167
  O        40.6522867078       33.7693515000        2.0653408381
  O        18.2553348378        1.3764755544        0.0018459284
  O        44.6222142902       35.1005610312       14.7536533812
  O        24.2053754111        0.0000194461        1.3259306541
  O        22.7528975794        2.0580362118        2.5889333823
  O        21.6239674372        3.5956644473        1.3468454999
  O        27.4940958097       18.7530870452       13.4912573633
  O        26.7633750378       16.9312407847       14.6450260612
  O        30.6386241483       19.3498548298        0.0742761469
  O        33.5842650558       16.2789623915       13.6594150091
  O        34.2718492258       18.1701035961       14.7315012318
  O        29.5737691256       17.0628699547       14.5761428618
  O        33.6191689222       16.3298256915        2.4180840030
  O        34.3046020038       18.2481348034        1.4111106755
  O        31.6532615629       18.3114708749        2.1686722806
  O        30.3237164059       15.1552551330        0.0956112367
  O        28.5538063615       21.0285151291       14.8993229436
  O        28.5128897127       20.9536057843        1.4158358603
  O        27.4533022636       18.6774796772        2.6648361405
  O        26.6927331669       16.9265195295        1.4196829367
  O        13.1486011914       18.6928478793        2.5925742041
  O        13.9190310827       16.9161583335        1.4099073769
  O        50.5965243864       19.3503037532        0.0255223645
  O        47.6833796658       16.3271353601        2.4224789419
  O        46.9523774692       18.1761150422        1.3292092083
  O        11.0698468100       17.0155462418        1.4947331774
  O        47.6759230317       16.3356064385       13.6478795172
  O        46.9282946026       18.2358969243       14.6601796324
  O        49.5688814518       18.3177201320       13.9771489980
  O        10.3186622541       15.1001159977        0.0021985853
  O        52.6708110947       21.0279047825        1.2469204062
  O        12.1468664421       20.8912135913       14.6681462996
  O        13.1083063945       18.6135380196       13.3204901582
  O        13.9569335388       16.9869318960       14.6605117659
  O        29.9917570788       14.4395794233        2.7368030780
  O        28.0889787324       14.6534390236        1.4997716391
  O        32.1413125095       16.8565243175        0.0966117712
  O        30.9639979121       20.9517946284        2.4142655348
  O        32.9443894298       20.6024046967        1.3438209815
  O        29.5694738897       17.0707678408        1.5843825558
  O        30.8716782333       20.9452842696       13.6600006349
  O        32.8775533282       20.5829244385       14.6626925258
  O        31.6803709609       18.2529718659       13.9824664313
  O        28.2601925616       18.6391854938        0.0820209193
  O        32.4936506366       14.2142967998        1.3395278822
  O        32.4066410542       14.2089663108       14.8214320264
  O        29.9094758247       14.4293775281       13.4871929028
  O        28.0360258675       14.5858230896       14.7499631038
  O        17.8892118934        1.9666048264        2.6679424280
  O        18.9561504108        3.5271339417        1.4131456035
  O        39.1686104085       34.1388231326        0.0022284169
  O        43.2802214278       33.0589883351        2.3367749956
  O        42.0345464992       31.5064610292        1.2467243958
  O        20.3175344355        1.0365747810        1.4854584468
  O        43.2760813427       33.1825788979       13.5698006468
  O        42.0052939260       31.5840965286       14.5778620625
  O        40.5789551954       33.7748732914       13.9306060512
  O        22.3671625724        1.3844048253        0.0030735905
  O        36.6727190446       35.0998423754        1.2383289916
  O        16.4455773291        0.0641928959       14.6631133063
  O        17.9364737853        2.0432961609       13.3212412820
  O        18.9188921146        3.5931214208       14.6607968466
  O        29.7909454024       18.8962422556       12.0785757180
  O        29.7905847521       18.8940354749        4.0190233535
  O        31.1722746050       16.1860564037       12.1550932192
  O        31.3445032020       16.3373651828        4.0697328845
  O        32.1524653913       16.7056632532        9.5762790444
  O        29.6610835319       17.2128964662        9.2513326848
  O        30.1337426687       15.5401506060        6.4944136691
  O        31.3526770442       17.8081404813        6.9218590455
  O        31.8105813535       19.2037001586        9.5782665495
  O        28.8503805699       18.3248802987        6.4910510212
  O        39.4568388796       35.2438938078       11.9968615312
  O        19.1408152532        0.0042720567        3.9957069653
  O        41.9696072875       35.1727892232       12.0820808193
  O        21.6912631872       -0.0693342526        3.9010316851
  O        51.3651990394       18.6143197577       12.0002922760
  O        10.7511384814       18.7472019280        3.9100751861
  O        50.0795766075       16.4127724574       12.0866424776
  O         9.5245097154       16.4831371047        3.9963064204
 Zr         9.2974439574       16.0527892163       14.1774119413
 Zr        49.8367338634       16.0066979250        1.7514070764
 Zr        22.0731560980        0.0295193457       14.1840988007
 Zr        42.4608560096       35.1532679292        1.8061134273
 Zr        29.5855184927       19.0864346770       14.2755523841
 Zr        29.5640971271       19.1646690422        1.8991530553
 Zr        11.0386023057       19.0519660342        1.8329040534
 Zr        11.0445359327       19.1548511027       14.2457827502
 Zr        31.3494464422       16.1030859660        1.9128783155
 Zr        31.4029391947       16.0123645645       14.3179706195
 Zr        18.6008805011       -0.0014148990        1.7683923368
 Zr        18.5062798759       -0.0079697820       14.2084953131
 Zr        12.3025933118       16.3237108100       15.9852189522
 Zr        48.6174361997       18.8332969732        0.0153407868
 Zr        20.3143443123        2.4729181641       15.9855083264
 Zr        40.6434375739       32.6869565912       15.9730918973
 Zr        28.3451938192       16.3458185935        0.0917725988
 Zr        32.6150410675       18.8379705036        0.0737524012
  H        32.2874432503       18.0463653632        6.8102827311
  H        32.5533913941       16.0141033251       10.1291897269
  H        29.0771418326       19.8518113630        8.8551509117
