     574
 i =      174, E =     -4778.8739804715
  C        11.8589424529       14.0534703821       13.7364321124
  C        12.4563714685       12.8906282660       13.0181784608
  C        11.7046465081       12.1716296275       12.0765663774
  C        12.2810385725       11.1094444173       11.3842427867
  C        13.6216635427       10.7397141063       11.6118747092
  C        14.3548789484       11.4434336489       12.5851993155
  C        13.7820121266       12.5084180384       13.2767018132
  C        14.2611110818        9.6490079586       10.8384777422
  C        14.2562389401        9.6568722141        9.4167849405
  C        13.7432066339       10.7590619039        8.6628868905
  C        49.1270219829       21.2331382066       13.8745384037
  C        48.5503705661       22.4011807313       13.1476076826
  C        49.3001874350       23.0680492391       12.1661298064
  C        48.7332846217       24.1072249450       11.4329564437
  C        47.4029676637       24.5094107137       11.6620103574
  C        46.6723321941       23.8611128626       12.6761548114
  C        47.2347493944       22.8162017546       13.4055052368
  C        46.7726460753       25.5870294059       10.8647120686
  C        46.7615671589       25.5573484858        9.4429443577
  C        47.2616142729       24.4423436218        8.6993863148
  C        14.8600581743        8.5704783755        8.7035133307
  C        14.8919024639        8.5970699927       11.5151335038
  C        49.1132721452       21.2034835124        2.1504950682
  C        48.5279966410       22.3649718866        2.8774335393
  C        49.2670634163       23.0253217343        3.8707305328
  C        48.6907735516       24.0599050435        4.6021776503
  C        47.3605304339       24.4571120959        4.3636259168
  C        46.6403701623       23.8126724727        3.3396001879
  C        47.2138851647       22.7767693913        2.6077922714
  C        46.7219911948       25.5319437944        5.1547445895
  C        46.7337244492       25.5282052327        6.5764537148
  C        47.2493110064       24.4290596837        7.3328324447
  C        40.6199774402       17.0877421634        7.3107967794
  C        40.6288744964       17.0948952845        4.5013652857
  C        11.8831381736       14.0864902323        2.2906422910
  C        12.4723617893       12.9107675376        2.9948118715
  C        11.7148913102       12.1776517501        3.9210578037
  C        12.2814731751       11.0952084904        4.5894506611
  C        13.6202466152       10.7213207783        4.3574930015
  C        14.3581748716       11.4368383245        3.3966101366
  C        13.7927718253       12.5180138080        2.7239230115
  C        14.2537937717        9.6245653459        5.1279231814
  C        14.2523773348        9.6445157660        6.5497607716
  C        13.7426655827       10.7535361918        7.2968415607
  C        22.5116771016        3.2441890397       13.7486807879
  C        23.2261320864        4.3497580162       13.0503259720
  C        24.2213750462        4.0704673263       12.1021764577
  C        24.8472134196        5.1108328048       11.4205094122
  C        24.4933887358        6.4521741125       11.6672461999
  C        23.5269610824        6.7229738659       12.6528740194
  C        22.8962965089        5.6844667225       13.3327661021
  C        25.0962691870        7.5592956655       10.8909326865
  C        25.0621595749        7.5536311132        9.4697923476
  C        24.3560474225        6.5555434484        8.7258152518
  C        38.2985174145       31.9270636751       13.8465145518
  C        37.5593656799       30.8367754492       13.1452355473
  C        36.5982028786       31.1403070482       12.1685069360
  C        35.9720819053       30.1199102098       11.4574722660
  C        36.2911498298       28.7692085685       11.6999566279
  C        37.2206857525       28.4733714195       12.7150564888
  C        37.8511784192       29.4926081604       13.4250923595
  C        35.6861645486       27.6782158521       10.9006776786
  C        35.7314810626       27.6907362908        9.4790058963
  C        36.4467020239       28.6902481122        8.7464039879
  C        25.6829577836        8.6236835601        8.7485783194
  C        25.6970610517        8.6328186113       11.5601198748
  C        38.3307929974       31.9602302587        2.1657145565
  C        37.6163084744       30.8858895092        2.9151868903
  C        36.6884741698       31.1928075212        3.9225401215
  C        36.0823844167       30.1738611356        4.6557058074
  C        36.3885113714       28.8207900668        4.4059515030
  C        37.2966025377       28.5239453300        3.3707881471
  C        37.9049049201       29.5393212498        2.6390754918
  C        35.7774107832       27.7201731820        5.1878906465
  C        35.7778055925       27.7124227208        6.6105689930
  C        36.4676024133       28.7014729647        7.3799162817
  C        46.1355386070       26.6207132486        7.2866416182
  C        46.0878947727       26.5802688187        4.4787447654
  C        22.4589374147        3.2550805256        2.2629559435
  C        23.1490880746        4.3638079287        2.9878952041
  C        24.1462398354        4.0782222349        3.9339191401
  C        24.7703278273        5.1090213802        4.6319265921
  C        24.4174761399        6.4543762352        4.4054287044
  C        23.4433704349        6.7331460624        3.4281747172
  C        22.8141767287        5.7025975814        2.7311290698
  C        25.0461841735        7.5531474373        5.1790304606
  C        25.0369520270        7.5498583877        6.6016028736
  C        24.3418362860        6.5549853520        7.3592314506
  C        26.6188220696       17.8624190657       13.7724690766
  C        25.3137544727       17.9131202282       13.0461627745
  C        25.0625503510       18.9029753095       12.0832540399
  C        23.8478179467       18.9287567629       11.4007400078
  C        22.8490863189       17.9675473877       11.6577881490
  C        23.0975632939       16.9998682666       12.6495679245
  C        24.3135192083       16.9690744247       13.3301606479
  C        21.5757965897       17.9548594400       10.8942919763
  C        21.5753206597       17.9313742443        9.4717060005
  C        22.7806705257       17.8037980489        8.7116917470
  C        34.4403098324       17.2032357683       13.9145154523
  C        35.7286953734       17.1636030404       13.1594991963
  C        35.9586060281       16.1655869690       12.1986892719
  C        37.1374568196       16.1575336562       11.4581336059
  C        38.1231336211       17.1428865263       11.6633297533
  C        37.8979014317       18.1211165554       12.6496400875
  C        36.7137496023       18.1366961756       13.3841556327
  C        39.3786517708       17.1447016817       10.8779077015
  C        39.3699760501       17.1359132581        9.4568273760
  C        38.1603444774       17.2501196614        8.7016676378
  C        20.3285879676       17.9499970939        8.7633375439
  C        20.3509140774       17.9572003786       11.5764944426
  C        34.4359622887       17.2374297513        2.1977038518
  C        35.7364053014       17.1377715615        2.9212495539
  C        35.9424138363       16.1556886172        3.9014990812
  C        37.1344936648       16.1224790773        4.6209427661
  C        38.1483547863       17.0703594744        4.3800559981
  C        37.9477301995       18.0261838996        3.3668488551
  C        36.7553018030       18.0642826866        2.6505981685
  C        39.3993426983       17.0840615931        5.1702167621
  C        39.3803837187       17.1058444032        6.5911739490
  C        38.1647644090       17.2346066182        7.3352664142
  C        35.1405689765       26.6339620428        7.3104589120
  C        35.1894112504       26.6500721197        4.5007635211
  C        26.5662598710       17.8267944877        2.3328703945
  C        25.2524493232       17.8764657044        3.0382696171
  C        24.9909967200       18.8828391897        3.9806425027
  C        23.7737645732       18.9107527520        4.6552929714
  C        22.7885277055       17.9334748533        4.4096290545
  C        23.0441344718       16.9530003723        3.4339762160
  C        24.2624414692       16.9219346236        2.7586024686
  C        21.5252251147       17.9175126057        5.1824032383
  C        21.5495685250       17.9112810394        6.6038126533
  C        22.7678184672       17.7944782517        7.3455777394
  C        14.0465110570       17.8295931666        2.2937880575
  C        15.3501670301       17.8888777237        3.0189162541
  C        15.6047778117       18.8941584696        3.9649798301
  C        16.8131088975       18.9178262894        4.6585336031
  C        17.8010093990       17.9390313640        4.4283564510
  C        17.5511309000       16.9579828363        3.4501159850
  C        16.3422842189       16.9297807683        2.7578636474
  C        19.0695234080       17.9251371932        5.1978004438
  C        19.0681410433       17.9262844450        6.6203085163
  C        17.8612278397       17.8294400454        7.3818724689
  C        46.8026437250       17.2154744799        2.1608247139
  C        45.5078234988       17.1432263556        2.8998486744
  C        45.3016687191       16.1559857921        3.8759228660
  C        44.1171924180       16.1261329869        4.6075186444
  C        43.1082349019       17.0834775996        4.3853814337
  C        43.3106019025       18.0494237165        3.3810796901
  C        44.4960932705       18.0829805381        2.6503116788
  C        41.8552627493       17.0874428272        5.1760830885
  C        41.8647717544       17.0944233998        6.5982766311
  C        43.0758574236       17.1921120913        7.3533742911
  C        20.3149302574       17.9388129507        7.3285846402
  C        20.2935244014       17.9041740456        4.5155606188
  C        46.7856693424       17.2336790587       13.8808603323
  C        45.4839676892       17.1339047395       13.1590982984
  C        45.2605325752       16.1321252246       12.2024094181
  C        44.0735080101       16.1089135950       11.4738030792
  C        43.0802169525       17.0853685050       11.6835044703
  C        43.2949787525       18.0590714399       12.6768318473
  C        44.4825845810       18.0877058958       13.4013539082
  C        41.8324128764       17.1069453975       10.8878609683
  C        41.8532967781       17.1032017063        9.4663470344
  C        43.0706957037       17.1927336209        8.7202119718
  C        46.1533577265       26.6371270458        8.7211976444
  C        46.1626235818       26.6561405559       11.5308360671
  C        14.0458773474       17.8330640474       13.7042470099
  C        15.3666682876       17.9114446487       13.0150326279
  C        15.6371253960       18.9292288579       12.0880409128
  C        16.8658452835       18.9710435540       11.4332418478
  C        17.8516959906       17.9942568229       11.6794046064
  C        17.5881982680       17.0057731581       12.6451376518
  C        16.3615064606       16.9634212214       13.3036472261
  C        19.1184288311       17.9731714112       10.9097853515
  C        19.0935918001       17.9497903905        9.4883209914
  C        17.8737101834       17.8399301790        8.7478883883
  C        28.8044444145       14.0859549625        2.4090289986
  C        28.1943782766       12.9095084998        3.0896959596
  C        28.9161026247       12.1618595738        4.0316646679
  C        28.3126487184       11.0885443971        4.6813973465
  C        26.9741574866       10.7389973269        4.4118645129
  C        26.2750459365       11.4644291697        3.4307973930
  C        26.8757122590       12.5386183233        2.7803811513
  C        26.3006196779        9.6633309248        5.1736703762
  C        26.2855765110        9.6941292226        6.5943424245
  C        26.7873161221       10.8094678094        7.3376392286
  C        32.1762358980       21.2382562708        2.1547544489
  C        32.7741609890       22.4023462844        2.8739201067
  C        32.0286145834       23.0829954943        3.8488877147
  C        32.6024573947       24.1209388354        4.5769142437
  C        33.9381890842       24.5071908043        4.3522278162
  C        34.6660479756       23.8459542172        3.3447955659
  C        34.0945053196       22.8026862452        2.6183415254
  C        34.5692116661       25.5800273855        5.1558420159
  C        34.5535413797       25.5504562309        6.5778928689
  C        34.0404025258       24.4349807104        7.3126868810
  C        25.6749639630        8.6178819887        7.3143654137
  C        25.6638917441        8.6126091490        4.5011976280
  C        32.0730509389       21.1977992422       13.8754184185
  C        32.6474053383       22.3579467793       13.1292718971
  C        31.9180468482       23.0079797135       12.1217178976
  C        32.4958711667       24.0447862515       11.3902505234
  C        33.8167106438       24.4637193907       11.6473308749
  C        34.5264575341       23.8284243738       12.6846556378
  C        33.9545621113       22.7872728480       13.4104070159
  C        34.4624156996       25.5470163761       10.8677811240
  C        34.4972236337       25.5345346657        9.4455470405
  C        34.0121506410       24.4281831916        8.6792131857
  C        40.6142125179       17.0980559631        8.7453409901
  C        40.6028304042       17.1473029027       11.5557251321
  C        28.7385511584       14.0654066183       13.8161047791
  C        28.1261317861       12.9233923517       13.0747998656
  C        28.8593603687       12.2342058324       12.0970776128
  C        28.2783589635       11.1785310656       11.3985621389
  C        26.9484355166       10.7867825615       11.6527437006
  C        26.2322648370       11.4649349129       12.6566450739
  C        26.8116192793       12.5209481932       13.3569784288
  C        26.3051341742        9.6966983395       10.8811944881
  C        26.2887926307        9.7112511297        9.4595218843
  C        26.7859265441       10.8191776800        8.7035171412
  C        18.1353911888        3.1808601629        2.3222965948
  C        17.4060738619        4.2781174442        3.0209751717
  C        16.3900346777        3.9997784401        3.9481343140
  C        15.7422639103        5.0397769305        4.6115791797
  C        16.0944928527        6.3834633662        4.3722064961
  C        17.0842764781        6.6529862530        3.4088654427
  C        17.7333902501        5.6156183170        2.7438554128
  C        15.4700932462        7.4911627393        5.1352249497
  C        15.4852203380        7.4904292849        6.5569409194
  C        16.1866559044        6.4967308572        7.3101064396
  C        42.9457213612       31.8595358621        2.0779083513
  C        43.6460397338       30.7717823972        2.8220079467
  C        44.5916991328       31.0931003454        3.8079338449
  C        45.1973895197       30.0875688035        4.5556559798
  C        44.8707958864       28.7345408032        4.3409222405
  C        43.9447800356       28.4201788919        3.3279050289
  C        43.3359802115       29.4253282004        2.5798395979
  C        45.4884896358       27.6552444591        5.1440619089
  C        45.4926454349       27.6807607294        6.5657605408
  C        44.8054639657       28.6887276530        7.3124047163
  C        14.8562789551        8.5629426834        7.2692947638
  C        14.8749824777        8.5630121198        4.4566259007
  C        42.9463630389       31.9616453076       13.8038891008
  C        43.6916086566       30.8854144579       13.0903260405
  C        44.6564926968       31.1912964599       12.1183288848
  C        45.2780307594       30.1716985453       11.4005974243
  C        44.9540057561       28.8214241307       11.6380277122
  C        44.0201332692       28.5237707258       12.6484248296
  C        43.3918415916       29.5405533437       13.3605809149
  C        45.5631018216       27.7240054695       10.8527952768
  C        45.5332780978       27.7172174045        9.4314985228
  C        44.8267963301       28.7073669188        8.6785891816
  C        35.1143692694       26.6245153278        8.7457527197
  C        35.0688602701       26.6061749124       11.5559871708
  C        18.1485200000        3.2469015656       13.7014382711
  C        17.4299789769        4.3437605977       12.9920678727
  C        16.4143977001        4.0525108104       12.0689107053
  C        15.7660731190        5.0831705347       11.3935678117
  C        16.1211184845        6.4283567978       11.6159431993
  C        17.1129657318        6.7117262659       12.5727042376
  C        17.7606425404        5.6827882845       13.2524393142
  C        15.4905482328        7.5240511703       10.8435289936
  C        15.4962528656        7.5073613753        9.4223953498
  C        16.1928944662        6.5055703762        8.6757081169
  H        10.6724876668       12.4656599219       11.8996085396
  H        11.6947952440       10.5508798770       10.6577368993
  H        15.3920007304       11.1690598842       12.7667471310
  H        14.3516513564       13.0717857891       14.0118872476
  H        13.3764889567       11.6313207406        9.1961784959
  H        50.3227244288       22.7476720575       11.9810082444
  H        49.3196854102       24.6221555438       10.6750846143
  H        45.6431256443       24.1625203952       12.8598922662
  H        46.6640086112       22.2915745891       14.1682227286
  H        47.6303817841       23.5760261075        9.2410039078
  H        14.8725116717        8.5884269945       12.6034449661
  H        50.2869798099       22.7022129927        4.0659117188
  H        49.2691190881       24.5751115124        5.3658868146
  H        45.6111904331       24.1104274717        3.1501063023
  H        46.6532520653       22.2550957286        1.8357641689
  H        47.6083100484       23.5520269856        6.8019485070
  H        40.6316130074       17.0580835225        3.4136321408
  H        48.6874050682       14.0952018126       15.7950634695
  H        10.6814556571       12.4667613619        4.0985488430
  H        11.6897678459       10.5248313669        5.3022271222
  H        15.3936052385       11.1589728007        3.2106343588
  H        14.3652109776       13.0873631758        1.9954572496
  H        13.3761395425       11.6222902443        6.7582284989
  H        47.9302905250       14.2191641486        1.7159177608
  H        47.7800967123       14.3747055453       14.4907584035
  H        49.0835742250       18.5522752085        2.8723468929
  H        10.4167197462       14.1343458914        0.0038621831
  H        24.4815974365        3.0320285128       11.9096022315
  H        25.6186588732        4.8946923105       10.6845970973
  H        23.2469687246        7.7558162995       12.8494297793
  H        22.1274452763        5.8836358123       14.0752549723
  H        23.7949460720        5.7998806796        9.2678053454
  H        36.3669090420       32.1837543145       11.9677242634
  H        35.2282174538       30.3606156196       10.7011105432
  H        37.4750123170       27.4338409709       12.9115483442
  H        38.5947955555       29.2699598950       14.1867232428
  H        37.0091975397       29.4390245623        9.2964292001
  H        25.7375350514        8.6142772396       12.6477115967
  H        36.4615999511       32.2365618934        4.1279892870
  H        35.3566386551       30.4193304439        5.4279168756
  H        37.5468448637       27.4842308312        3.1703850772
  H        38.6269627728       29.3130875488        1.8582515083
  H        37.0469989944       29.4585793131        6.8592414632
  H        46.1093518314       26.5878297179        3.3907104154
  H        44.6682096633       35.1162143102       15.8088443843
  H        24.4227970956        3.0400778525        4.1034051983
  H        25.5474926840        4.8815271621        5.3584121665
  H        23.1600150745        7.7676166239        3.2449905784
  H        22.0460333291        5.9141121942        1.9908955886
  H        23.7690796149        5.7995869453        6.8290984473
  H        44.9536218119       34.3902183958        1.7002116521
  H        44.9014607714       34.2066223423       14.4856747075
  H        40.6659296599       33.2089678942        2.8582375368
  H        23.1500659333        1.9579844206        0.0105605437
  H        25.8314250527       19.6455053852       11.8825381268
  H        23.6585389541       19.7026021735       10.6598875087
  H        22.3389265425       16.2477451885       12.8563408181
  H        24.5163245329       16.2079803657       14.0798958394
  H        23.7218229530       17.6817754650        9.2400837610
  H        35.2035236865       15.3964637768       12.0522096601
  H        37.3170434406       15.3754401619       10.7233918066
  H        38.6510137557       18.8894818417       12.8122606107
  H        36.5235992643       18.9053606686       14.1298020723
  H        37.2248839105       17.3887230696        9.2364909835
  H        20.3578277522       17.9977525108       12.6643337353
  H        35.1518527128       15.4344186443        4.0956781304
  H        37.2940114284       15.3573128648        5.3775374193
  H        38.7234637620       18.7648729021        3.1761530533
  H        36.5797350169       18.8205533308        1.8894160245
  H        37.2320482649       17.3588032934        6.7921631774
  H        35.1669766936       26.6774437086        3.4129568586
  H        28.4986575782       21.0784932677       15.9601872282
  H        25.7530218099       19.6371072446        4.1642403011
  H        23.5706371118       19.6947055562        5.3816653774
  H        22.2912712318       16.1920525182        3.2387829909
  H        24.4760935709       16.1529117870        2.0201466288
  H        23.6991570630       17.6650368595        6.8024906781
  H        29.0256389463       21.7086408506        1.7540604286
  H        29.1803130004       21.7170255954       14.6177138872
  H        32.0593639999       18.5932956831        3.0009509507
  H        27.3687340974       19.0193207746        0.0786052833
  H        14.8452602927       19.6525504725        4.1412043853
  H        17.0071178900       19.7036615867        5.3854014660
  H        18.3036091204       16.1944959240        3.2635203895
  H        16.1379286001       16.1591674992        2.0183589763
  H        16.9185229198       17.7133679417        6.8551048155
  H        46.0874432636       15.4260157517        4.0556053738
  H        43.9597274786       15.3534810667        5.3569186813
  H        42.5398950177       18.7968951280        3.2045215530
  H        44.6682589036       18.8437072938        1.8923941269
  H        44.0164787282       17.2985687488        6.8205724134
  H        20.2874645788       17.9313786145        3.4273594019
  H        46.0323742726       15.3850090324       12.0318395887
  H        43.9032208893       15.3298976728       10.7338322772
  H        42.5343618578       18.8186280195       12.8452101153
  H        44.6687383802       18.8576498122       14.1460867084
  H        44.0073900456       17.2985053230        9.2598619762
  H        46.1995801515       26.6828333615       12.6182747973
  H        52.7414320124       21.0628363172        0.1998038133
  H        14.8745320371       19.6811452963       11.8975412466
  H        17.0749163587       19.7631713825       10.7174730038
  H        18.3411109026       16.2455836734       12.8429645248
  H        16.1427792365       16.1872693462       14.0329910890
  H        16.9402923239       17.7318329338        9.2920503629
  H        52.3232444833       21.6736568093       14.2890098121
  H        52.0141057219       21.7028272851        1.5008574464
  H        49.0686436605       18.6082702642       13.1985941754
  H        13.2479396251       19.0162319311       15.9723298553
  H        29.9470590879       12.4366732675        4.2420691673
  H        28.8717941109       10.5088992757        5.4126398952
  H        25.2410581476       11.2030175686        3.2154468288
  H        26.3332272463       13.1220337877        2.0406428798
  H        27.1478520432       11.6786873003        6.7957806670
  H        31.0028746814       22.7730335643        4.0328530529
  H        32.0183902893       24.6462883861        5.3293517735
  H        35.6997092821       24.1340104049        3.1644012764
  H        34.6632152420       22.2675193974        1.8614160455
  H        33.6920680563       23.5640488675        6.7647133233
  H        25.6959085928        8.5906524976        3.4133175868
  H        30.9005811652       22.6825383313       11.9164640278
  H        31.9217945718       24.5472265191       10.6146931851
  H        35.5483257339       24.1393235313       12.8920068430
  H        34.5104848964       22.2769385731       14.1932276442
  H        33.6418340954       23.5518495418        9.2035389617
  H        40.5978841738       17.1259227368       12.6438647257
  H        32.5104008923       14.1428067859        0.2712618809
  H        29.8851530351       12.5410266099       11.9051979746
  H        28.8537937999       10.6388154758       10.6495634059
  H        25.2029598813       11.1756491952       12.8584777968
  H        26.2554818954       13.0606914994       14.1197316473
  H        27.1433015557       11.6963158785        9.2351441378
  H        33.3020047270       14.2228083810       14.4501418685
  H        33.4070797079       14.4130505680        1.6114910441
  H        32.0442359459       18.5478742085       13.2219572749
  H        30.1954724824       14.1393665857        0.1517824973
  H        16.1177647996        2.9632827737        4.1342924462
  H        14.9525660917        4.8204070610        5.3269684579
  H        17.3670744271        7.6858262335        3.2160921271
  H        18.5157425387        5.8182552952        2.0163422146
  H        16.7531738699        5.7393750710        6.7765905631
  H        44.8280746916       32.1401890854        3.9819714478
  H        45.9373622476       30.3413251298        5.3114974748
  H        43.6818964400       27.3781293727        3.1579645543
  H        42.5991914879       29.1900639174        1.8153121471
  H        44.2300480137       29.4364476135        6.7740935889
  H        14.8514442267        8.5463314611        3.3683997106
  H        44.9002117276       32.2339771913       11.9270908285
  H        46.0251524934       30.4129195878       10.6475707757
  H        43.7628933334       27.4840676418       12.8397474529
  H        42.6449966016       29.3178366543       14.1187153987
  H        44.2682909448       29.4702162153        9.2132374453
  H        35.0148968401       26.6209582101       12.6429750685
  H        36.6052495986       35.1338389238        0.1859019168
  H        16.1430474983        3.0129560202       11.8994789098
  H        14.9734732470        4.8563624807       10.6837783797
  H        17.3969212526        7.7471436413       12.7491740974
  H        18.5439113530        5.8932132732       13.9767836925
  H        16.7642854369        5.7553103257        9.2141635552
  H        36.2788004005       34.4820719672       14.2681086345
  H        36.3808570280       34.2090159589        1.5048956938
  H        40.5787448869       33.2017320779       13.1488560281
  H        17.4708687053        1.9471570460       15.9689014798
  H        29.2010238133       19.3906128239        4.5285260767
  H        29.4740927613       19.2538435856       11.6113418506
  H        32.3742352413       16.3574746141       11.9764477799
  H        31.1016539270       15.5383470276        4.5596753598
  H        27.9186486547       17.9880450582        6.2622343035
  H        29.6172424313       16.0416863074        7.2079907583
  H        30.9274972016       19.2722859685        9.6202523615
  H        33.5318042566       17.8786514798        7.8524397581
  H        31.1896450617       15.4342820393        9.8287623448
  H        18.8541955003        0.8690668655        4.3404264012
  H        40.5279977872       35.2290144537       11.9470353083
  H        42.3235989503       34.4185481187       11.5855588609
  H        22.0875991252        0.6924153716        4.3562364409
  H        11.5971385927       18.7124383876        4.3875774565
  H        52.2652041181       18.4314751402       11.6722281430
  H        49.2552739639       16.4765810199       11.5792675944
  H        10.1500921126       15.7983464573        4.2979125304
  H        50.8505364236       17.6925948208       11.9489556840
  H        10.0461268226       17.3947479542        4.0569796290
  H        20.2158234114        0.0023460156        4.0469121525
  H        39.1835711676       36.1243529711       11.6813981406
 Ni        30.5590776751       17.4166204923       10.9881546680
 Ni        31.6629469154       16.9596574644        7.9104393571
 Ni        29.3785135153       18.5283067140        8.0765368665
 Ni        30.0171723860       17.4253408579        5.2476259685
  O        10.6499972634       14.3651572917       13.4807768468
  O        12.6131884009       14.6575521864       14.5788179881
  O        49.1477511360       16.8458299705       15.9846445336
  O        50.3503314300       20.9355843964       13.6428771870
  O        48.3485804048       20.5932403152       14.6608213918
  O        11.0517042096       17.0537807770       14.4957446495
  O        50.3209607193       20.8816158210        2.4119725932
  O        48.3467133737       20.5866891491        1.3322229556
  O        49.5437361263       18.2483766828        2.0733102692
  O        12.3593291531       18.6247176151        0.0047874016
  O        48.6931970743       14.1487051536       14.7462204592
  O         8.2099463781       14.2104731718        1.3275915639
  O        10.7353669878       14.5068082045        2.6693954302
  O        12.5718127027       14.5828552319        1.3336000658
  O        22.8444291601        2.0430871820       13.4822546639
  O        21.6049582853        3.5919704459       14.5849704598
  O        42.0579942566       34.1371788006       15.9737405721
  O        37.9812065323       33.1356399471       13.5670481488
  O        39.2176136846       31.5752257094       14.6610148324
  O        20.3083034278        1.0394504500       14.4967911139
  O        38.0241744833       33.1843206416        2.4210859745
  O        39.2186233654       31.5831091674        1.3322801277
  O        40.6521924740       33.7691256514        2.0652421378
  O        18.2557168389        1.3762184116        0.0018598923
  O        44.6222345486       35.1005081611       14.7536360200
  O        24.2054084099       -0.0000198876        1.3258755638
  O        22.7526998046        2.0572826609        2.5886856547
  O        21.6238981681        3.5953844942        1.3468329220
  O        27.4996573107       18.7517127521       13.4915588853
  O        26.7530694050       16.9359328344       14.6461075726
  O        30.6340257212       19.3506051985        0.0851858646
  O        33.5883625750       16.2776063896       13.6599515841
  O        34.2757341590       18.1649996794       14.7368825411
  O        29.5408577431       17.0036887911       14.5778118056
  O        33.5503595049       16.3394040969        2.4274865193
  O        34.2993186178       18.2356843092        1.4128020389
  O        31.6498261645       18.3120184084        2.1655701386
  O        30.2937831114       15.1050066239        0.1521329168
  O        28.5522392649       21.0265027848       14.8967173995
  O        28.5129941217       20.9527963815        1.4195342563
  O        27.4545344668       18.6781727722        2.6647522134
  O        26.6895673547       16.9266079565        1.4236823832
  O        13.1478937063       18.6932421129        2.5922276598
  O        13.9192603658       16.9164331006        1.4103477738
  O        50.5963774495       19.3502083471        0.0255360165
  O        47.6827790283       16.3268313770        2.4223643470
  O        46.9502401943       18.1756227446        1.3306117824
  O        11.0698556770       17.0155757444        1.4945703519
  O        47.6746855903       16.3360808802       13.6472787326
  O        46.9262819058       18.2361702003       14.6589378056
  O        49.5687392538       18.3176415621       13.9772488848
  O        10.3189364042       15.1001561842        0.0021835427
  O        52.6708000072       21.0279166904        1.2469093179
  O        12.1468472247       20.8912755617       14.6682402171
  O        13.1073965196       18.6138348346       13.3207649407
  O        13.9573158541       16.9872657022       14.6600893485
  O        29.9910959268       14.4398332540        2.7464951924
  O        28.0854383268       14.6492223472        1.5137991323
  O        32.0756858287       16.8487284054        0.1102808453
  O        30.9612565081       20.9481283003        2.4164217178
  O        32.9411974982       20.6013541665        1.3430616460
  O        29.5620775564       17.0692401265        1.5821562130
  O        30.8466026844       20.8851887589       13.6593605157
  O        32.8675179094       20.5822096758       14.6642388453
  O        31.6836682685       18.2412383882       14.0699573509
  O        28.2557220784       18.6246308172        0.0859359301
  O        32.4919459743       14.2134319810        1.3423004396
  O        32.4064464368       14.2082752255       14.8264413275
  O        29.9117479345       14.4348302445       13.4909092538
  O        28.0325695355       14.5850268658       14.7520241619
  O        17.8891775779        1.9665133635        2.6679391775
  O        18.9561423088        3.5270906653        1.4131213420
  O        39.1685108644       34.1386539584        0.0022458272
  O        43.2801957318       33.0588667633        2.3368231782
  O        42.0344293583       31.5064125355        1.2466818072
  O        20.3174041481        1.0364338869        1.4853498629
  O        43.2761395380       33.1825284787       13.5697883792
  O        42.0052578471       31.5840768442       14.5778723221
  O        40.5788966226       33.7749268385       13.9306035921
  O        22.3672066219        1.3844181802        0.0029815937
  O        36.6728182764       35.0996383299        1.2385042460
  O        16.4456448755        0.0640740467       14.6631005281
  O        17.9364932898        2.0432810282       13.3212612632
  O        18.9188854422        3.5931317492       14.6607751618
  O        29.9777478765       18.6908804128       12.2337371596
  O        29.8168580088       18.8370750838        4.0078893763
  O        31.4279263499       16.1925836819       12.1522513388
  O        31.2223281611       16.4163298842        4.1495000553
  O        33.2958597427       17.6676750800        8.8356422235
  O        30.7962863522       16.2625598332        9.4962790057
  O        30.4182243422       16.1965319281        6.6666776686
  O        32.5790282965       17.8737132715        6.5783973728
  O        30.0708528233       18.8205443507        9.7510476786
  O        28.8045159502       18.3889562693        6.3303439913
  O        39.4567531129       35.2437073469       11.9968730996
  O        19.1421969036        0.0046951415        3.9955543625
  O        41.9695604320       35.1726984370       12.0820068368
  O        21.6913875596       -0.0693891780        3.9010527214
  O        51.3652500700       18.6143457509       12.0002540684
  O        10.7512864404       18.7470057393        3.9101066988
  O        50.0795961747       16.4127252306       12.0867015799
  O         9.5242041847       16.4831790240        3.9963023153
 Zr         9.2981688570       16.0527461720       14.1774034634
 Zr        49.8377536646       16.0067871005        1.7514558071
 Zr        22.0731772988        0.0300405329       14.1838093536
 Zr        42.4608063063       35.1534877890        1.8057576162
 Zr        29.5856025127       19.0532713160       14.3153798116
 Zr        29.5588648169       19.1587724908        1.8720203620
 Zr        11.0388564014       19.0520818739        1.8331109607
 Zr        11.0449306952       19.1548195511       14.2456036287
 Zr        31.3215703834       16.0997647254        1.9104255229
 Zr        31.3584789162       15.9791144366       14.3280939599
 Zr        18.6010136297       -0.0017601310        1.7687893994
 Zr        18.5065024165       -0.0080536005       14.2084328745
 Zr        12.3035792470       16.3235422143       15.9851975805
 Zr        48.6177984126       18.8334035912        0.0155719101
 Zr        20.3148550131        2.4733211280       15.9852565930
 Zr        40.6427694274       32.6868937609       15.9729224017
 Zr        28.3182040048       16.3143761311        0.0931251585
 Zr        32.6150549517       18.8304670348        0.0728675233
  H        32.5736360895       17.3674113342        5.7411636446
  H        33.8764569070       16.9447711353        9.1312205428
  H        28.1642868679       19.1902776674        8.4589600642
