     574
 i =      266, E =     -4778.8687817462
  C        11.8587815419       14.0535416861       13.7363305137
  C        12.4562679863       12.8906783459       13.0177972083
  C        11.7043565498       12.1715997379       12.0764157573
  C        12.2805723156       11.1093664122       11.3839543358
  C        13.6212762864       10.7397038300       11.6111944846
  C        14.3547054840       11.4434686597       12.5843411241
  C        13.7819595788       12.5084684521       13.2759630654
  C        14.2605054403        9.6487617391       10.8378739512
  C        14.2550856608        9.6560574967        9.4161474077
  C        13.7415410798       10.7578443408        8.6620194477
  C        49.1268883799       21.2331917285       13.8745597296
  C        48.5501523796       22.4011692970       13.1474444766
  C        49.3002309940       23.0686041319       12.1665725187
  C        48.7332941771       24.1077349317       11.4333505141
  C        47.4027030895       24.5092438748       11.6618584888
  C        46.6716777492       23.8602549180       12.6752361708
  C        47.2341485343       22.8153712950       13.4046060330
  C        46.7724140392       25.5869357457       10.8646066370
  C        46.7613633379       25.5574008777        9.4428489591
  C        47.2614058374       24.4423971082        8.6992996305
  C        14.8586861570        8.5694358684        8.7029931441
  C        14.8916400762        8.5970817128       11.5146318310
  C        49.1132476430       21.2034966683        2.1504719383
  C        48.5278365065       22.3649105190        2.8776399032
  C        49.2671317225       23.0258853599        3.8703220322
  C        48.6907720231       24.0604640011        4.6017473970
  C        47.3602678042       24.4570302793        4.3636801707
  C        46.6397690080       23.8118658100        3.3403812810
  C        47.2133600354       22.7759312313        2.6086420262
  C        46.7218162083       25.5320371173        5.1547030618
  C        46.7335297323       25.5283395728        6.5764175083
  C        47.2490823163       24.4291394615        7.3327481306
  C        40.6325190119       17.1573383643        7.3261573759
  C        40.6509754915       17.1755345815        4.5170944495
  C        11.8827648528       14.0861729652        2.2903566185
  C        12.4712928493       12.9096295601        2.9941318905
  C        11.7132927025       12.1769280743        3.9202661808
  C        12.2790277901       11.0939190425        4.5885306703
  C        13.6175028951       10.7190446057        4.3565426015
  C        14.3558714621       11.4340217778        3.3955780928
  C        13.7913097862       12.5157798341        2.7230591517
  C        14.2506095347        9.6220771141        5.1271571855
  C        14.2498559612        9.6425380031        6.5490304713
  C        13.7403515715       10.7517616798        7.2959550431
  C        22.5125910068        3.2440410089       13.7482183551
  C        23.2299491653        4.3475886123       13.0491425160
  C        24.2274627317        4.0639660425       12.1045733388
  C        24.8580633579        5.1010738248       11.4223519753
  C        24.5067690579        6.4437990858       11.6648252748
  C        23.5374275542        6.7190241325       12.6464939668
  C        22.9021586575        5.6836495782       13.3271569918
  C        25.1158406080        7.5480321037       10.8888504354
  C        25.0873570139        7.5410895699        9.4674539882
  C        24.3824903845        6.5434618583        8.7216681386
  C        38.3027061613       31.9298478598       13.8440147798
  C        37.5737429467       30.8402862788       13.1343703311
  C        36.6132267369       31.1439263339       12.1575452627
  C        35.9964144888       30.1233864457       11.4393649428
  C        36.3256441264       28.7745893567       11.6768656910
  C        37.2566885794       28.4783478206       12.6900412022
  C        37.8775652417       29.4975838934       13.4070247935
  C        35.7236433248       27.6825921036       10.8801196861
  C        35.7541132418       27.6975128468        9.4588385598
  C        36.4586479897       28.7003077147        8.7207941847
  C        25.7116744907        8.6101802038        8.7475703737
  C        25.7155775205        8.6213013756       11.5595159566
  C        38.3288239878       31.9617394968        2.1622466580
  C        37.6071135073       30.8876028689        2.9033354129
  C        36.6764502502       31.1948049092        3.9076850113
  C        36.0667796037       30.1753416098        4.6364267232
  C        36.3735236943       28.8230148374        4.3847516185
  C        37.2817287321       28.5257216641        3.3501997919
  C        37.8933646105       29.5416777296        2.6225900521
  C        35.7666942878       27.7232997295        5.1695014158
  C        35.7762462855       27.7182187140        6.5916705300
  C        36.4688134693       28.7105800263        7.3542144544
  C        46.1354590645       26.6209053005        7.2866192292
  C        46.0877024270       26.5803506695        4.4787084109
  C        22.4608368826        3.2555011287        2.2628002423
  C        23.1551047624        4.3638502670        2.9862794005
  C        24.1594063382        4.0773125533        3.9246032354
  C        24.7880806301        5.1069529196        4.6206582255
  C        24.4326745023        6.4529239765        4.4010915731
  C        23.4513246857        6.7327903327        3.4312743332
  C        22.8180318921        5.7033598620        2.7356605957
  C        25.0650339774        7.5500645482        5.1754763370
  C        25.0619514308        7.5414512458        6.5983591878
  C        24.3687446129        6.5444446354        7.3550420966
  C        26.6203308447       17.8615469370       13.7777470277
  C        25.3124520004       17.9068698991       13.0539701443
  C        25.0599299522       18.8933656385       12.0877079854
  C        23.8467876163       18.9130007291       11.4018391341
  C        22.8503662188       17.9490674806       11.6589309222
  C        23.1002016514       16.9851708075       12.6540493499
  C        24.3148349001       16.9602721790       13.3380371977
  C        21.5775442675       17.9318514121       10.8940542441
  C        21.5773502212       17.9041065335        9.4715090825
  C        22.7825717963       17.7763337582        8.7111304958
  C        34.4409642916       17.1940058033       13.9170598848
  C        35.7329429472       17.1517339757       13.1713275697
  C        35.9344442509       16.1976413396       12.1618212515
  C        37.1137253412       16.1943426947       11.4224529190
  C        38.1243260132       17.1422991567       11.6750338747
  C        37.9257409871       18.0760594405       12.7097136494
  C        36.7426586518       18.0864503791       13.4446323532
  C        39.3784915462       17.1567746205       10.8894731807
  C        39.3746666864       17.1796258452        9.4680320367
  C        38.1687769764       17.3131130098        8.7101509180
  C        20.3309181670       17.9211553241        8.7626100744
  C        20.3522238040       17.9374735059       11.5757342164
  C        34.4697441635       17.2453606063        2.1893101608
  C        35.7717892512       17.1716164593        2.9129550622
  C        35.9859758000       16.1964409574        3.8983744967
  C        37.1720226318       16.1842684192        4.6268860395
  C        38.1730951822       17.1454408079        4.3872542341
  C        37.9662887726       18.0940779380        3.3686297021
  C        36.7775033229       18.1125661202        2.6447770015
  C        39.4201349961       17.1689117692        5.1819207293
  C        39.3958840646       17.1859023092        6.6027088139
  C        38.1785586686       17.3140193120        7.3434730016
  C        35.1465498128       26.6393186281        7.2969244280
  C        35.1780677884       26.6507985806        4.4875681424
  C        26.5724337461       17.8242567319        2.3324089285
  C        25.2577504365       17.8711642694        3.0384170587
  C        24.9924099240       18.8747335799        3.9823380980
  C        23.7744135704       18.8978661552        4.6561627744
  C        22.7921610630       17.9180312931        4.4087544473
  C        23.0514693054       16.9400374075        3.4315080750
  C        24.2703307376       16.9142947272        2.7567376873
  C        21.5283770881       17.8971183577        5.1813982602
  C        21.5521762070       17.8851049616        6.6028268989
  C        22.7703369425       17.7672980773        7.3448993635
  C        14.0466826982       17.8284011588        2.2941450459
  C        15.3509692270       17.8840495090        3.0197230420
  C        15.6078196047       18.8849440952        3.9697152820
  C        16.8167658636       18.9037519561        4.6627622419
  C        17.8032225045       17.9245794498        4.4278925998
  C        17.5511983466       16.9481543790        3.4456411592
  C        16.3416666246       16.9246099551        2.7543507342
  C        19.0722961304       17.9054481533        5.1968261558
  C        19.0709049572       17.9001631275        6.6193317684
  C        17.8638922945       17.8008922694        7.3805599440
  C        46.8060463227       17.2198364027        2.1645171557
  C        45.5173642095       17.1627430482        2.9117652906
  C        45.3108711444       16.1905291611        3.9025020432
  C        44.1301439083       16.1793622251        4.6402177559
  C        43.1269452136       17.1405095796        4.4083973285
  C        43.3306891372       18.0920149734        3.3909303434
  C        44.5120146540       18.1072796737        2.6545244505
  C        41.8744098922       17.1594317272        5.1967247451
  C        41.8796808585       17.1633123173        6.6184046399
  C        43.0886133214       17.2541820488        7.3776369939
  C        20.3176036375       17.9104392415        7.3277598078
  C        20.2964862610       17.8871896794        4.5145319812
  C        46.7859462235       17.2315300779       13.8845852614
  C        45.4822972099       17.1288079340       13.1704206146
  C        45.2616224358       16.1351909381       12.2048354665
  C        44.0733044423       16.1148528222       11.4789727049
  C        43.0771137026       17.0850596005       11.7021820264
  C        43.2875054674       18.0471804935       12.7073847412
  C        44.4768862980       18.0741500499       13.4279985929
  C        41.8320336740       17.1168584487       10.9046229786
  C        41.8582322237       17.1399647538        9.4840576408
  C        43.0784384013       17.2405497356        8.7441301633
  C        46.1532828675       26.6372883484        8.7211705380
  C        46.1624942086       26.6560233575       11.5308042739
  C        14.0456534985       17.8315845744       13.7035316370
  C        15.3667010008       17.9054763729       13.0130203919
  C        15.6396888988       18.9190273247       12.0822589354
  C        16.8686939167       18.9554931791       11.4273188549
  C        17.8525204427       17.9776783472       11.6775217337
  C        17.5865000507       16.9934057288       12.6467553846
  C        16.3594416413       16.9562372085       13.3049791529
  C        19.1198432709       17.9512598971       10.9085985608
  C        19.0957240761       17.9225539976        9.4872082432
  C        17.8760836066       17.8109801256        8.7465873758
  C        28.8101978244       14.0933872353        2.3975108590
  C        28.1956460481       12.9212347889        3.0879455032
  C        28.9260451427       12.1643359541        4.0161987893
  C        28.3270896361       11.0889708963        4.6679777133
  C        26.9840344419       10.7449947256        4.4133915181
  C        26.2744714129       11.4823605768        3.4488486147
  C        26.8708577582       12.5588259414        2.7968563357
  C        26.3178231754        9.6620978457        5.1731373637
  C        26.3125476372        9.6844506204        6.5940311597
  C        26.8231462906       10.7939583789        7.3398827795
  C        32.1777145940       21.2350871894        2.1534844284
  C        32.7744677563       22.3970445131        2.8772054391
  C        32.0254516951       23.0815172684        3.8470961083
  C        32.5983332018       24.1203244914        4.5748548850
  C        33.9348919576       24.5041990199        4.3515769415
  C        34.6664792962       23.8379657058        3.3505717876
  C        34.0968105983       22.7927519535        2.6261486726
  C        34.5640951972       25.5815884045        5.1489425397
  C        34.5555360811       25.5544600705        6.5703397462
  C        34.0469510269       24.4398133758        7.3092364917
  C        25.7029175295        8.6067590806        7.3129469389
  C        25.6777262629        8.6139689269        4.4993005288
  C        32.1016288166       21.2271270038       13.8777919026
  C        32.6945176503       22.3766633175       13.1324478253
  C        31.9602737185       23.0384920532       12.1362641746
  C        32.5416962163       24.0680375578       11.4000085286
  C        33.8708917047       24.4663355489       11.6424277911
  C        34.5882262597       23.8179114801       12.6659170887
  C        34.0117195954       22.7824178054       13.3969927492
  C        34.5111912968       25.5476303375       10.8584063422
  C        34.5272866684       25.5377512976        9.4365792453
  C        34.0320138333       24.4323928844        8.6757159256
  C        40.6213332319       17.1497750333        8.7601366872
  C        40.6013699271       17.1424131217       11.5695463513
  C        28.7473498394       14.0648004129       13.8153765933
  C        28.1383900537       12.9166341832       13.0780580489
  C        28.8767194029       12.2238090225       12.1065624367
  C        28.2997660272       11.1654987000       11.4084934916
  C        26.9682650469       10.7748002900       11.6558565057
  C        26.2468853071       11.4562340176       12.6539188503
  C        26.8226277153       12.5144799658       13.3546043746
  C        26.3287051392        9.6834202264       10.8824689143
  C        26.3187257387        9.6959524279        9.4606021787
  C        26.8233822712       10.8010948572        8.7056650416
  C        18.1351841503        3.1794659912        2.3226892715
  C        17.4044694029        4.2762133071        3.0206632876
  C        16.3904195227        3.9971425498        3.9498045561
  C        15.7418331186        5.0367584429        4.6130665290
  C        16.0913398522        6.3808500527        4.3717849147
  C        17.0789629807        6.6509539311        3.4063631140
  C        17.7287810384        5.6140097965        2.7414093819
  C        15.4668400111        7.4885052439        5.1347721356
  C        15.4828788621        7.4885071328        6.5565140247
  C        16.1852075032        6.4955307544        7.3098173717
  C        42.9456997277       31.8596316463        2.0778076158
  C        43.6459190075       30.7722057039        2.8222166935
  C        44.5914238763       31.0934632264        3.8083380272
  C        45.1971219835       30.0878705626        4.5559635863
  C        44.8708241985       28.7347843987        4.3409712180
  C        43.9450418680       28.4205143773        3.3276808123
  C        43.3362037030       29.4256936351        2.5797283125
  C        45.4885053465       27.6554537157        5.1440634415
  C        45.4926689875       27.6810243044        6.5657602817
  C        44.8054816562       28.6889553641        7.3124547833
  C        14.8541438219        8.5612580356        7.2687389020
  C        14.8711887598        8.5600415244        4.4560627260
  C        42.9463413432       31.9615119299       13.8040200158
  C        43.6917701351       30.8853903422       13.0906676778
  C        44.6561469335       31.1912853695       12.1181440670
  C        45.2776412100       30.1717058346       11.4003822189
  C        44.9540681920       28.8213620310       11.6381635322
  C        44.0208322847       28.5237073661       12.6491828401
  C        43.3926179892       29.5404693249       13.3614165447
  C        45.5630318156       27.7239812048       10.8528343745
  C        45.5332753321       27.7173739178        9.4315369052
  C        44.8267771185       28.7075206017        8.6786406379
  C        35.1337506689       26.6296305890        8.7316109293
  C        35.1208332990       26.6066737063       11.5414217765
  C        18.1483863450        3.2469526682       13.7014834942
  C        17.4298514122        4.3438407855       12.9921988155
  C        16.4145925580        4.0524815916       12.0686933066
  C        15.7662668888        5.0830379631       11.3932056120
  C        16.1208654737        6.4283373892       11.6157540069
  C        17.1122606299        6.7118024614       12.5729853855
  C        17.7599561725        5.6829603502       13.2528733833
  C        15.4901845468        7.5238799860       10.8431943896
  C        15.4954143023        7.5067337568        9.4220478196
  C        16.1921003940        6.5049391770        8.6754168456
  H        10.6721177580       12.4655723902       11.8997643511
  H        11.6940298658       10.5507512139       10.6577227849
  H        15.3918579858       11.1690783102       12.7656893714
  H        14.3516749397       13.0718454530       14.0110887637
  H        13.3747523245       11.6301789098        9.1951399655
  H        50.3229906310       22.7486574133       11.9819511305
  H        49.3198328291       24.6230694361       10.6758645532
  H        45.6421218540       24.1608940406       12.8582614043
  H        46.6630911297       22.2900280314       14.1665985017
  H        47.6300127202       23.5760290173        9.2409503745
  H        14.8724568486        8.5887532305       12.6029493198
  H        50.2872513582       22.7031951376        4.0651146546
  H        49.2692379322       24.5761062877        5.3650717197
  H        45.6102803259       24.1089222220        3.1514601834
  H        46.6524555227       22.2535506405        1.8372824210
  H        47.6079319170       23.5520753578        6.8018031247
  H        40.6571215675       17.1373074879        3.4294686626
  H        48.6870073499       14.0950024446       15.7949106690
  H        10.6800795849       12.4668225568        4.0978257974
  H        11.6868198807       10.5239851343        5.3012528505
  H        15.3910414354       11.1552954365        3.2094452320
  H        14.3640643174       13.0847145683        1.9945117035
  H        13.3733117814       11.6201996063        6.7571807653
  H        47.9302009440       14.2183454397        1.7160554796
  H        47.7800675916       14.3736263600       14.4900195769
  H        49.0841378019       18.5525746241        2.8726363094
  H        10.4160453694       14.1342763355        0.0037502171
  H        24.4860118138        3.0244943928       11.9154048515
  H        25.6316969794        4.8811268249       10.6898681241
  H        23.2590982778        7.7529425779       12.8397465701
  H        22.1314935307        5.8865262191       14.0668070452
  H        23.8210819293        5.7871002862        9.2623782901
  H        36.3750738009       32.1870604992       11.9634401736
  H        35.2509895713       30.3617315057       10.6838479722
  H        37.5181590167       27.4393815829       12.8798033680
  H        38.6221193218       29.2774117500       14.1683434976
  H        37.0229524990       29.4510733538        9.2663090658
  H        25.7504331875        8.6041592222       12.6473211813
  H        36.4515409435       32.2386344467        4.1147444751
  H        35.3396764584       30.4194020122        5.4077883298
  H        37.5307838040       27.4859145434        3.1488658843
  H        38.6170591672       29.3168348085        1.8429362618
  H        37.0418909891       29.4688214083        6.8283990319
  H        46.1091174594       26.5877762338        3.3906661507
  H        44.6705398590       35.1163019897       15.8051519077
  H        24.4383947702        3.0391071787        4.0897911107
  H        25.5705598315        4.8776163414        5.3408744649
  H        23.1651644004        7.7673046071        3.2526525813
  H        22.0446598689        5.9167430953        2.0013785267
  H        23.7961873038        5.7894583082        6.8241117597
  H        44.9543031429       34.3896064841        1.6998040168
  H        44.9000859457       34.2057047512       14.4836109180
  H        40.6650750703       33.2095254965        2.8574187401
  H        23.1518001124        1.9578556725        0.0095146376
  H        25.8281651558       19.6372588092       11.8886434647
  H        23.6559602720       19.6846933511       10.6590503388
  H        22.3433214870       16.2314688186       12.8617056317
  H        24.5184171819       16.2017790872       14.0903526651
  H        23.7228497154       17.6564494726        9.2413272255
  H        35.1505074483       15.4700361182       11.9656464450
  H        37.2691725951       15.4472875114       10.6471822235
  H        38.6983951586       18.8159012745       12.9085574262
  H        36.5716628964       18.8224090857       14.2268967929
  H        37.2305787975       17.4449615626        9.2414680360
  H        20.3586773473       17.9826080700       12.6634004213
  H        35.2048494161       15.4644014315        4.0890382898
  H        37.3372432783       15.4262153824        5.3893483679
  H        38.7338802534       18.8415237511        3.1789925772
  H        36.5951404440       18.8629867272        1.8792511612
  H        37.2478287304       17.4464282377        6.7991702505
  H        35.1507465642       26.6751452781        3.3998029395
  H        28.5020638933       21.0688371655       15.9604381897
  H        25.7528153421       19.6294038775        4.1699005131
  H        23.5685053774       19.6799559617        5.3837778286
  H        22.3010527701       16.1772072072        3.2341828663
  H        24.4867104903       16.1475709752        2.0166552816
  H        23.7013490803       17.6407440959        6.8005056880
  H        29.0220390278       21.7100096789        1.7526715472
  H        29.1788903254       21.7276838256       14.6271179041
  H        32.1107519618       18.5523195855        2.9788199700
  H        27.3744993599       19.0239425120        0.0888873428
  H        14.8495921142       19.6437819019        4.1497192422
  H        17.0121178573       19.6861281661        5.3930068447
  H        18.3023615665       16.1843546556        3.2550547953
  H        16.1355924806       16.1573269807        2.0118771520
  H        16.9214565417       17.6846449991        6.8533152620
  H        46.0925690394       15.4574641181        4.0873723297
  H        43.9697565970       15.4179013492        5.4002844926
  H        42.5637278916       18.8418139779        3.2082654088
  H        44.6866107821       18.8562648030        1.8857098748
  H        44.0308424071       17.3658329634        6.8487729305
  H        20.2904842421       17.9196051819        3.4264690309
  H        46.0370147651       15.3941487017       12.0243529717
  H        43.9043713044       15.3446507662       10.7295619817
  H        42.5226061477       18.7999865300       12.8861044297
  H        44.6619388759       18.8364555379       14.1807299629
  H        44.0129573150       17.3403167307        9.2886047917
  H        46.1993869522       26.6825067520       12.6182458007
  H        52.7412209030       21.0626453184        0.1997978938
  H        14.8788296679       19.6719428961       11.8886414190
  H        17.0793545755       19.7442916852       10.7083370183
  H        18.3375633885       16.2322285158       12.8477969414
  H        16.1387314769       16.1832294867       14.0370457475
  H        16.9427151171       17.7024406124        9.2907883603
  H        52.3225902839       21.6733132574       14.2891201726
  H        52.0132733876       21.7020648050        1.5007714647
  H        49.0676643131       18.6077956008       13.1990299747
  H        13.2478377325       19.0161443785       15.9722403299
  H        29.9633501528       12.4298073142        4.2082112594
  H        28.8949399331       10.5006198010        5.3856024031
  H        25.2366493013       11.2264629308        3.2453545367
  H        26.3214517871       13.1485615513        2.0671026346
  H        27.1884682054       11.6613111245        6.7985348244
  H        30.9957793458       22.7782569476        4.0216818262
  H        32.0127080962       24.6507840298        5.3225660426
  H        35.7009570749       24.1250085892        3.1732530057
  H        34.6666890556       22.2533764090        1.8730492168
  H        33.6929425498       23.5698147423        6.7637232747
  H        25.7024503063        8.5979972006        3.4111007734
  H        30.9361561110       22.7270291116       11.9446260355
  H        31.9654442285       24.5817820079       10.6335984264
  H        35.6173770377       24.1141408571       12.8582280300
  H        34.5707330978       22.2593422168       14.1693974479
  H        33.6655967219       23.5570646639        9.2044678836
  H        40.5937484228       17.0961711773       12.6568556995
  H        32.5081758616       14.1452369791        0.2495996460
  H        29.9034590726       12.5294479158       11.9178609712
  H        28.8804235117       10.6229171929       10.6655606625
  H        25.2164870992       11.1676018320       12.8512322062
  H        26.2626522294       13.0563047353       14.1131819413
  H        27.1880232797       11.6739208000        9.2392619186
  H        33.3091432562       14.2218654184       14.4614041761
  H        33.4094874714       14.4103959224        1.5993645674
  H        32.1307371233       18.5180619213       13.1881210404
  H        30.2195730158       14.1893286577        0.0853207604
  H        16.1206276034        2.9603286134        4.1377783789
  H        14.9536202457        4.8167520862        5.3298973916
  H        17.3595342686        7.6840754905        3.2118638513
  H        18.5094253471        5.8172607070        2.0122472834
  H        16.7518123068        5.7381821455        6.7763884402
  H        44.8278055822       32.1405027776        3.9826080284
  H        45.9369576909       30.3415809829        5.3119555585
  H        43.6824419891       27.3784427440        3.1574104069
  H        42.5996988471       29.1903768292        1.8149519957
  H        44.2300055115       29.4366710109        6.7742046184
  H        14.8469811696        8.5428796602        3.3678561512
  H        44.8995182759       32.2339711466       11.9265083416
  H        46.0243742220       30.4129560032       10.6469827853
  H        43.7640495186       27.4839628740       12.8409055523
  H        42.6463083249       29.3176494245       14.1200429442
  H        44.2681885281       29.4703203904        9.2132614086
  H        35.0789912175       26.6195198671       12.6289052497
  H        36.6077026151       35.1344951672        0.1898398573
  H        16.1434700125        3.0128876848       11.8991248032
  H        14.9738926607        4.8560942447       10.6832070769
  H        17.3957482775        7.7472855209       12.7498157330
  H        18.5428073360        5.8935540987       13.9776199617
  H        16.7641014763        5.7551393372        9.2138647214
  H        36.2777169749       34.4837179233       14.2683068655
  H        36.3851442731       34.2075675693        1.5051591844
  H        40.5790756838       33.2025188348       13.1484904883
  H        17.4747941598        1.9460745436       15.9717169656
  H        29.0736164956       19.2013275128        4.5424560955
  H        29.7486927607       19.7228705095       11.5689485090
  H        31.8875570315       15.7976959598       11.5623030239
  H        31.4181612200       15.5665321289        4.5429727220
  H        28.2673512651       17.6179205524        6.6621277488
  H        29.5716122635       15.1865003643        6.2869316682
  H        31.6747621717       19.6890318707        9.2259868577
  H        32.8474070468       17.0596433603        9.3000634976
  H        28.6593382625       16.7162963716        9.5260692059
  H        18.9043976634        0.8518741076        4.3675522869
  H        40.5246154634       35.2296226486       11.9462860433
  H        42.3243380243       34.4188890700       11.5843407396
  H        22.0968939780        0.6991938266        4.3484045615
  H        11.5971236354       18.7130147281        4.3875798288
  H        52.2649423416       18.4309745440       11.6722100340
  H        49.2546360402       16.4771277479       11.5797273076
  H        10.1508788981       15.7981637660        4.2975701211
  H        50.8499808571       17.6925048045       11.9491263966
  H        10.0465078902       17.3945139512        4.0570420256
  H        20.2921816404        0.0045099207        4.0391900115
  H        39.1818359433       36.1252493986       11.6838960992
 Ni        30.7804831326       17.7135223793       10.8239923988
 Ni        30.8593178993       16.3038589450        8.1584369970
 Ni        29.9322053565       18.7450317362        7.9147711022
 Ni        30.0939554925       17.2861027690        5.1652991366
  O        10.6499547433       14.3651059544       13.4807008916
  O        12.6131706992       14.6574760586       14.5787413136
  O        49.1481057271       16.8458794489       15.9846347863
  O        50.3503119362       20.9358668422       13.6429462315
  O        48.3485834694       20.5933768728       14.6608117145
  O        11.0517569837       17.0538225628       14.4955859111
  O        50.3210135924       20.8816918462        2.4119853043
  O        48.3467524502       20.5868570111        1.3322633590
  O        49.5438450240       18.2484197414        2.0734146217
  O        12.3592483849       18.6246593971        0.0048068595
  O        48.6932478982       14.1485730687       14.7461944209
  O         8.2098802377       14.2104016366        1.3276631894
  O        10.7353537383       14.5067190055        2.6694409884
  O        12.5718303281       14.5827052931        1.3336596249
  O        22.8445178333        2.0426654534       13.4820034264
  O        21.6059416002        3.5924712037       14.5841357103
  O        42.0594336662       34.1369973122       15.9718204977
  O        37.9817561698       33.1379323973       13.5676982014
  O        39.2181819412       31.5762117847       14.6617286623
  O        20.3090312859        1.0398015452       14.4967129740
  O        38.0252409033       33.1855605884        2.4215282913
  O        39.2189463494       31.5836446536        1.3319058000
  O        40.6543156716       33.7681732879        2.0632911241
  O        18.2592960804        1.3745106212        0.0033952030
  O        44.6227957505       35.1002419123       14.7516505438
  O        24.2068432968       -0.0001077880        1.3255106904
  O        22.7531472224        2.0571462246        2.5886350763
  O        21.6248052540        3.5961439369        1.3479240409
  O        27.4946245262       18.7516893174       13.4924194144
  O        26.7627959934       16.9304580418       14.6462528467
  O        30.6368369750       19.3503877517        0.0723572895
  O        33.5910430558       16.2735703264       13.6645877367
  O        34.2734962220       18.1685175613       14.7319589101
  O        29.5746385066       17.0610757438       14.5686992341
  O        33.6076133153       16.3275266541        2.4208208992
  O        34.3030653942       18.2442375946        1.4116090411
  O        31.6543730038       18.3109933730        2.1570646172
  O        30.3209836737       15.1551910625        0.0914841506
  O        28.5550384031       21.0283049198       14.8945131025
  O        28.5140128309       20.9510595255        1.4187306975
  O        27.4605069539       18.6773966103        2.6665221569
  O        26.6936092396       16.9271569008        1.4212461920
  O        13.1490479540       18.6928226517        2.5926142663
  O        13.9193407438       16.9161264152        1.4100281055
  O        50.5964216137       19.3502739391        0.0256076316
  O        47.6833340146       16.3270912267        2.4225184416
  O        46.9522497936       18.1760095183        1.3293295338
  O        11.0698591992       17.0154960443        1.4947582952
  O        47.6759214194       16.3356204683       13.6478478471
  O        46.9283446952       18.2358389693       14.6601210850
  O        49.5688293996       18.3177065325       13.9772090967
  O        10.3186959472       15.1001264718        0.0021909694
  O        52.6707869227       21.0278784598        1.2469360132
  O        12.1468796679       20.8912025724       14.6681307252
  O        13.1082729526       18.6136052829       13.3204791665
  O        13.9572274349       16.9870567106       14.6603178490
  O        29.9950538822       14.4429605194        2.7358666961
  O        28.0893576870       14.6533201096        1.5011241943
  O        32.1396797658       16.8517042829        0.0857245942
  O        30.9618721266       20.9458736713        2.4179072198
  O        32.9423876336       20.6023176911        1.3425782803
  O        29.5685515228       17.0697125772        1.5816701822
  O        30.8709514142       20.9468696935       13.6593840618
  O        32.8757577564       20.5862339121       14.6633023261
  O        31.6829878263       18.2554433937       14.0073950084
  O        28.2624127061       18.6314806565        0.0819336730
  O        32.4922344816       14.2132590563        1.3329886545
  O        32.4064342975       14.2129848294       14.8217777194
  O        29.9179909077       14.4357244301       13.4875702523
  O        28.0380102646       14.5881815346       14.7478083336
  O        17.8898265597        1.9652101736        2.6685787532
  O        18.9561644583        3.5266144286        1.4135836692
  O        39.1692587845       34.1392846291        0.0046497886
  O        43.2804490128       33.0593627072        2.3364770146
  O        42.0346237406       31.5065845856        1.2466066315
  O        20.3213128031        1.0373010742        1.4841215432
  O        43.2760771375       33.1825516003       13.5696830347
  O        42.0051446012       31.5841642942       14.5778999553
  O        40.5787963178       33.7749799942       13.9307632425
  O        22.3684743411        1.3849090718        0.0023221159
  O        36.6742415279       35.0996804308        1.2409033728
  O        16.4459600056        0.0648329822       14.6631030073
  O        17.9364851117        2.0434063538       13.3214862987
  O        18.9189429971        3.5931593295       14.6609298478
  O        29.8628509374       18.9087599420       12.0904737557
  O        29.8377761127       18.8283725560        4.0601261210
  O        31.3370849558       16.3513038744       12.1480474959
  O        31.3185909433       16.4104863116        4.0617451085
  O        32.0621045487       16.5669694088        9.5895105925
  O        29.5091142707       17.1467765052        9.3264584440
  O        30.2919358529       15.8290905160        6.4075893003
  O        32.2654286263       19.1309133330        6.5787973620
  O        30.8035211832       19.3417519239        9.4870861845
  O        28.9625956122       18.2287419209        6.3556382714
  O        39.4554951536       35.2438912340       11.9970326679
  O        19.2009795649        0.0037936390        3.9929500729
  O        41.9699189769       35.1723876210       12.0815122459
  O        21.7010010807       -0.0688169691        3.9030640255
  O        51.3651234445       18.6142546898       12.0002673120
  O        10.7513344856       18.7471557391        3.9100050543
  O        50.0792585173       16.4127984035       12.0866606172
  O         9.5249018047       16.4830237436        3.9962905914
 Zr         9.2970855166       16.0527329070       14.1773714922
 Zr        49.8365127751       16.0066505455        1.7514920881
 Zr        22.0724704282        0.0304827115       14.1810237258
 Zr        42.4636257184       35.1519753593        1.7965798150
 Zr        29.5930289635       19.0824215684       14.2539952589
 Zr        29.5727236235       19.1582471737        1.8655879294
 Zr        11.0383866204       19.0518701328        1.8328126207
 Zr        11.0442176994       19.1547728097       14.2459010751
 Zr        31.3517064724       16.1034523088        1.8580553631
 Zr        31.3889642931       16.0080223376       14.2679388782
 Zr        18.6070973880        0.0003418051        1.7804783364
 Zr        18.5060448868       -0.0083781436       14.2119900871
 Zr        12.3023405666       16.3235639583       15.9851910451
 Zr        48.6169921425       18.8331681349        0.0154364816
 Zr        20.3145865783        2.4740020837       15.9849380747
 Zr        40.6412924767       32.6874702223       15.9729362526
 Zr        28.3377805046       16.3344135811        0.0789368618
 Zr        32.6228430998       18.8347945376        0.0540634541
  H        31.9486309146       19.7880066367        5.9311595472
  H        32.1021849168       18.2815080402        6.1142297728
  H        29.3345457621       20.0662550894        7.8111194330
