     574
 i =      185, E =     -4778.8843475080
  C        11.8588599050       14.0535684860       13.7363978686
  C        12.4563979102       12.8907117343       13.0180234521
  C        11.7045707983       12.1714647326       12.0767123609
  C        12.2809537182       11.1092657086       11.3843710114
  C        13.6216550546       10.7397962195       11.6118447000
  C        14.3550216238       11.4437097556       12.5848945240
  C        13.7821093907       12.5086957873       13.2763699074
  C        14.2611308206        9.6490707167       10.8384963964
  C        14.2563980017        9.6569390858        9.4168058984
  C        13.7432722090       10.7590895505        8.6629150238
  C        49.1269999372       21.2332174097       13.8745517597
  C        48.5502617482       22.4012511778       13.1474872396
  C        49.3002560215       23.0685147375       12.1664377557
  C        48.7333103593       24.1076700942       11.4332472108
  C        47.4028110248       24.5093697865       11.6619600511
  C        46.6719139049       23.8605759602       12.6755590667
  C        47.2343770146       22.8156707810       13.4048968247
  C        46.7724976775       25.5870319369       10.8647004777
  C        46.7613592241       25.5573645776        9.4429429554
  C        47.2612921410       24.4422705603        8.6994504108
  C        14.8602843275        8.5705687263        8.7035568798
  C        14.8919016511        8.5971383692       11.5151522492
  C        49.1133437094       21.2034182360        2.1504938115
  C        48.5279878881       22.3648490693        2.8776921502
  C        49.2671396370       23.0254039965        3.8707532181
  C        48.6908403511       24.0600054905        4.6021949871
  C        47.3605177608       24.4569465667        4.3637858949
  C        46.6401890547       23.8122317158        3.3400837489
  C        47.2137288588       22.7762983245        2.6083328336
  C        46.7220227943       25.5318933073        5.1548021485
  C        46.7335814628       25.5281804640        6.5765091573
  C        47.2490057550       24.4289632435        7.3328983520
  C        40.6362078110       17.1567132347        7.3263055385
  C        40.6571526398       17.1892746187        4.5173993867
  C        11.8830853202       14.0865541586        2.2906386498
  C        12.4724864947       12.9108887356        2.9950100959
  C        11.7148559462       12.1774061001        3.9208033292
  C        12.2815064115       11.0949838259        4.5892155454
  C        13.6204451968       10.7215487524        4.3576305873
  C        14.3585756651       11.4374802608        3.3972367348
  C        13.7931051801       12.5186247802        2.7245401045
  C        14.2539903885        9.6247194556        5.1279775707
  C        14.2526378425        9.6446280540        6.5498101473
  C        13.7427638721       10.7535838713        7.2968709584
  C        22.5119749418        3.2440352184       13.7483121989
  C        23.2273657955        4.3487025884       13.0491742339
  C        24.2240248785        4.0674769394       12.1030413638
  C        24.8518759671        5.1063451267       11.4209118198
  C        24.4986330692        6.4482729847       11.6651190850
  C        23.5303886752        6.7210734670       12.6484822443
  C        22.8978112308        5.6840046470       13.3289307316
  C        25.1045613488        7.5542166234       10.8892097617
  C        25.0738632738        7.5482290267        9.4679078686
  C        24.3697901080        6.5498480044        8.7223440425
  C        38.3034411256       31.9301987905       13.8436555890
  C        37.5756694926       30.8404969178       13.1328458783
  C        36.6188605926       31.1437859505       12.1523538549
  C        36.0038308059       30.1228892466       11.4331035845
  C        36.3308724587       28.7741242298       11.6736799095
  C        37.2581487753       28.4783182090       12.6904255489
  C        37.8775605240       29.4979054264       13.4081081556
  C        35.7298401860       27.6815512451       10.8770708665
  C        35.7627743178       27.6946091245        9.4558980239
  C        36.4698571950       28.6956037975        8.7179008273
  C        25.6960756752        8.6183819994        8.7478691601
  C        25.7045226182        8.6274608479       11.5597797965
  C        38.3287705619       31.9619734595        2.1609147658
  C        37.6077551012       30.8874388771        2.9017507280
  C        36.6794917439       31.1938708143        3.9084235807
  C        36.0713656003       30.1736361011        4.6372512989
  C        36.3773716122       28.8217365094        4.3827703167
  C        37.2827116403       28.5252465506        3.3456013127
  C        37.8929668112       29.5419587380        2.6181167660
  C        35.7722629626       27.7213346919        5.1673291075
  C        35.7844826565       27.7149186646        6.5892934241
  C        36.4796824422       28.7057746046        7.3513732511
  C        46.1355284053       26.6207949564        7.2866462762
  C        46.0881234234       26.5802902776        4.4787560419
  C        22.4603210632        3.2558839204        2.2628667876
  C        23.1528921723        4.3649913414        2.9862822777
  C        24.1547419156        4.0798054626        3.9275809259
  C        24.7810412498        5.1105656210        4.6240611607
  C        24.4256314533        6.4560866255        4.4017677911
  C        23.4469291915        6.7345289916        3.4289036041
  C        22.8159177528        5.7040215824        2.7329807745
  C        25.0553074761        7.5545456594        5.1762223673
  C        25.0492852235        7.5476762670        6.5990229971
  C        24.3563195810        6.5505118941        7.3557315044
  C        26.6194668570       17.8591994388       13.7756762195
  C        25.3111131507       17.9054646556       13.0532756441
  C        25.0572976540       18.8935313450       12.0889872742
  C        23.8441645686       18.9132675004       11.4033194389
  C        22.8490043428       17.9478170867       11.6590109807
  C        23.0997079504       16.9825497529       12.6525668273
  C        24.3144922994       16.9575120475       13.3361974503
  C        21.5762759160       17.9310386455       10.8942470699
  C        21.5761335263       17.9041740641        9.4717009743
  C        22.7813281607       17.7770291022        8.7112314020
  C        34.4417916696       17.1915515861       13.9137842380
  C        35.7342902345       17.1464049961       13.1685326051
  C        35.9400808546       16.1836585267       12.1682512127
  C        37.1195647218       16.1783312981       11.4290915096
  C        38.1254940532       17.1332920210       11.6730724453
  C        37.9226954317       18.0762828268       12.6982567313
  C        36.7396133327       18.0881768702       13.4330680090
  C        39.3799690707       17.1469569079       10.8882290230
  C        39.3768043842       17.1686569222        9.4670287735
  C        38.1704197494       17.2940242349        8.7084679642
  C        20.3295949678       17.9215109773        8.7630418408
  C        20.3512649186       17.9365878920       11.5762091709
  C        34.4811780406       17.2481688928        2.1773131675
  C        35.7848292211       17.1794383820        2.9014730227
  C        36.0068463230       16.1908891890        3.8718159737
  C        37.1901317980       16.1806426586        4.6048302155
  C        38.1805047515       17.1569517413        4.3840412216
  C        37.9660527619       18.1204421190        3.3811833439
  C        36.7796095484       18.1368486441        2.6527207441
  C        39.4261350218       17.1775902365        5.1810770379
  C        39.4002864327       17.1840252039        6.6016540235
  C        38.1813925421       17.2989107713        7.3418474737
  C        35.1541253672       26.6364261545        7.2943282058
  C        35.1821097350       26.6500288795        4.4852141182
  C        26.5675492417       17.8242769010        2.3288101498
  C        25.2527593578       17.8695106358        3.0347032822
  C        24.9910102709       18.8694005571        3.9833818171
  C        23.7737011149       18.8928597161        4.6579888273
  C        22.7892369500       17.9161796033        4.4076941092
  C        23.0451518046       16.9414178279        3.4262548391
  C        24.2631849262       16.9159047694        2.7499052817
  C        21.5264161084       17.8955686973        5.1815283829
  C        21.5506284498       17.8846854295        6.6030977235
  C        22.7690015823       17.7676784106        7.3449677204
  C        14.0464349988       17.8284532377        2.2942476100
  C        15.3501156528       17.8840292657        3.0200041690
  C        15.6065833786       18.8849389863        3.9701041349
  C        16.8152380526       18.9036195306        4.6634919092
  C        17.8015644830       17.9242396485        4.4289323882
  C        17.5499170186       16.9478626387        3.4465327213
  C        16.3407478814       16.9244614860        2.7548122401
  C        19.0704272776       17.9050047297        5.1977905469
  C        19.0692469960       17.9007162769        6.6202036480
  C        17.8622981044       17.8021130230        7.3815342337
  C        46.8073827394       17.2206382671        2.1645789862
  C        45.5198203821       17.1661671127        2.9132265061
  C        45.3121509211       16.1935431679        3.9030759938
  C        44.1322070138       16.1851506563        4.6417907819
  C        43.1320589923       17.1495513434        4.4111075138
  C        43.3372580817       18.1020788906        3.3951479386
  C        44.5177125484       18.1144260268        2.6577339111
  C        41.8796302646       17.1690452254        5.1984592608
  C        41.8838667783       17.1678910142        6.6198545347
  C        43.0923061396       17.2584128043        7.3799348030
  C        20.3161371191       17.9106948297        7.3282352413
  C        20.2942975347       17.8856463629        4.5151971864
  C        46.7862613588       17.2312969915       13.8851331123
  C        45.4823568461       17.1275924675       13.1713793973
  C        45.2625373672       16.1334319433       12.2062666411
  C        44.0743853012       16.1121586634       11.4802528751
  C        43.0777826864       17.0818160162       11.7033990456
  C        43.2871156060       18.0443942694       12.7082651852
  C        44.4764898582       18.0723499800       13.4288616641
  C        41.8331911484       17.1124287490       10.9052463987
  C        41.8603739310       17.1373198493        9.4848553799
  C        43.0811065725       17.2416283397        8.7462759372
  C        46.1532838446       26.6372106524        8.7211959390
  C        46.1625795155       26.6561663309       11.5308302738
  C        14.0456405574       17.8317156547       13.7036736555
  C        15.3664280759       17.9058726276       13.0136073626
  C        15.6391121786       18.9192940336       12.0826033409
  C        16.8680659236       18.9557969207       11.4277647131
  C        17.8519609443       17.9781023579       11.6782177069
  C        17.5863175216       16.9941870389       12.6479053006
  C        16.3593631488       16.9569932278       13.3061314817
  C        19.1189375413       17.9514247295       10.9091531133
  C        19.0945171197       17.9232011939        9.4878225307
  C        17.8746561474       17.8121620689        8.7475238208
  C        28.8093372538       14.0928555131        2.3980460544
  C        28.1927155465       12.9205675494        3.0871661666
  C        28.9200141627       12.1649347739        4.0187766015
  C        28.3182715594       11.0915749652        4.6712875582
  C        26.9756752277       10.7482501979        4.4134927501
  C        26.2695545760       11.4836880738        3.4450534083
  C        26.8686491828       12.5584569022        2.7927285876
  C        26.3067397945        9.6673294934        5.1735629872
  C        26.2973310206        9.6921935797        6.5943739557
  C        26.8044455212       10.8036142137        7.3398407446
  C        32.1799120647       21.2403238081        2.1420557747
  C        32.7777933492       22.4032750563        2.8649475779
  C        32.0303937966       23.0812688372        3.8406421245
  C        32.6035960191       24.1175150473        4.5718386718
  C        33.9388445021       24.5047353373        4.3467013020
  C        34.6686020034       23.8449552046        3.3398708607
  C        34.0985011516       22.8025394372        2.6114885973
  C        34.5685976893       25.5802946060        5.1460951934
  C        34.5611565670       25.5526579532        6.5675866746
  C        34.0509317877       24.4390671302        7.3069214885
  C        25.6878273134        8.6145183743        7.3133590868
  C        25.6691710488        8.6176378491        4.4998679839
  C        32.1020913545       21.2288777766       13.8743363302
  C        32.6952208264       22.3802577510       13.1314269329
  C        31.9624212503       23.0399967373       12.1328615817
  C        32.5445795633       24.0690388858       11.3963759891
  C        33.8732653731       24.4680508077       11.6405703575
  C        34.5889669585       23.8217346381       12.6665273371
  C        34.0114708426       22.7872199644       13.3982145156
  C        34.5151514395       25.5478769675       10.8560116021
  C        34.5331703356       25.5365222924        9.4342672334
  C        34.0364844760       24.4317489678        8.6734367111
  C        40.6239841654       17.1449099647        8.7600737231
  C        40.6021257838       17.1356599863       11.5693424907
  C        28.7458632689       14.0658698692       13.8149588823
  C        28.1350041249       12.9188124223       13.0771113082
  C        28.8706995510       12.2243630686       12.1048728361
  C        28.2902608910       11.1679321866       11.4067008746
  C        26.9579703617       10.7806254923       11.6551932191
  C        26.2392936490       11.4633930988       12.6541582063
  C        26.8184035358       12.5199676415       13.3544975861
  C        26.3155913351        9.6905247184       10.8823865148
  C        26.3025109319        9.7045575046        9.4606335625
  C        26.8043428174       10.8110391404        8.7056688363
  C        18.1353717937        3.1810784125        2.3222797142
  C        17.4061266620        4.2782758127        3.0208994444
  C        16.3903867825        3.9999300370        3.9484131002
  C        15.7427009139        5.0399277401        4.6119013082
  C        16.0946071002        6.3836555550        4.3722039782
  C        17.0839851529        6.6531531276        3.4084244859
  C        17.7330412712        5.6158072706        2.7433567029
  C        15.4703033417        7.4913433708        5.1352528607
  C        15.4854922792        7.4905650556        6.5569628682
  C        16.1869656220        6.4968955175        7.3101387932
  C        42.9459270247       31.8595646600        2.0780321539
  C        43.6463362514       30.7719220274        2.8219965917
  C        44.5917338987       31.0932814021        3.8081804274
  C        45.1974700929       30.0877469409        4.5558404446
  C        44.8712534575       28.7346565367        4.3408344240
  C        43.9456178121       28.4202993186        3.3274497236
  C        43.3367627015       29.4254143912        2.5794147264
  C        45.4888099354       27.6553564153        5.1440281045
  C        45.4928392414       27.6809299535        6.5657217172
  C        44.8057228784       28.6889545320        7.3123519172
  C        14.8565393211        8.5630528356        7.2693413009
  C        14.8751665300        8.5631955592        4.4566654837
  C        42.9464902769       31.9616222745       13.8038857775
  C        43.6917697337       30.8855004305       13.0904344007
  C        44.6562862324       31.1914126621       12.1180591679
  C        45.2778266282       30.1718298878       11.4003395358
  C        44.9541502499       28.8215019687       11.6380504138
  C        44.0208001247       28.5238336960       12.6489547199
  C        43.3925241176       29.5405910784       13.3611264990
  C        45.5631526885       27.7240984937       10.8527894025
  C        45.5333432842       27.7173773796        9.4314950656
  C        44.8269727724       28.7075745240        8.6785390681
  C        35.1415039442       26.6270415767        8.7289897616
  C        35.1244814405       26.6072986811       11.5386599242
  C        18.1485526851        3.2470894697       13.7014478396
  C        17.4299523396        4.3438666377       12.9922279815
  C        16.4147094667        4.0525923928       12.0686805026
  C        15.7664114923        5.0832323677       11.3933152918
  C        16.1211126550        6.4284668653       11.6160157663
  C        17.1125345121        6.7118471624       12.5732287214
  C        17.7601980386        5.6829372475       13.2529926722
  C        15.4906239777        7.5241454224       10.8435709747
  C        15.4964505895        7.5074415334        9.4224449921
  C        16.1931654137        6.5057118670        8.6757422043
  H        10.6723342543       12.4653663512       11.8999541068
  H        11.6946076061       10.5505323771       10.6580778135
  H        15.3922098484       11.1694830398       12.7662745319
  H        14.3517502210       13.0722851407       14.0113910383
  H        13.3763356789       11.6312299092        9.1962534574
  H        50.3229498532       22.7484348065       11.9816497898
  H        49.3198059290       24.6229120872       10.6756580752
  H        45.6424768767       24.1614660039       12.8588397271
  H        46.6634572748       22.2904811798       14.1670925183
  H        47.6299412204       23.5759460873        9.2411438680
  H        14.8723622629        8.5884819315       12.6034585837
  H        50.2871440718       22.7024451193        4.0657432414
  H        49.2692330130       24.5753651512        5.3657656610
  H        45.6108919511       24.1097143867        3.1508246228
  H        46.6530419777       22.2543181691        1.8365490365
  H        47.6078872590       23.5518890221        6.8019943584
  H        40.6644084669       17.1574519281        3.4296003659
  H        48.6871572908       14.0949988469       15.7949405868
  H        10.6812857633       12.4662610937        4.0979702488
  H        11.6896693845       10.5243335122        5.3016677477
  H        15.3941651050       11.1599625747        3.2116414429
  H        14.3656119474       13.0883547944        1.9964237976
  H        13.3760473260       11.6222408882        6.7582266130
  H        47.9303061691       14.2183308836        1.7161129842
  H        47.7801539551       14.3739851938       14.4902242679
  H        49.0847039026       18.5529051127        2.8727380016
  H        10.4164182725       14.1342563444        0.0038580769
  H        24.4840338909        3.0286016330       11.9125557451
  H        25.6247647420        4.8884357760       10.6870310576
  H        23.2507235331        7.7543725393       12.8431138330
  H        22.1278552145        5.8848940985       14.0698308058
  H        23.8092530211        5.7929296669        9.2631806717
  H        36.3822579716       32.1868909832       11.9562030096
  H        35.2612817734       30.3609340231       10.6746686411
  H        37.5178279001       27.4393458854       12.8825921137
  H        38.6193867114       29.2781451797       14.1721983196
  H        37.0357040813       29.4451896596        9.2634532862
  H        25.7418211793        8.6092272917       12.6474924115
  H        36.4556518112       32.2375720947        4.1172931509
  H        35.3462543147       30.4166092130        5.4108186433
  H        37.5306555118       27.4855801110        3.1422360258
  H        38.6148366643       29.3182799890        1.8364593291
  H        37.0540003842       29.4627821870        6.8251403818
  H        46.1097289305       26.5877926821        3.3907245436
  H        44.6682727872       35.1162018299       15.8088353436
  H        24.4334143394        3.0418404667        4.0948395922
  H        25.5616719456        4.8825287870        5.3466827163
  H        23.1610385175        7.7687559644        3.2482286711
  H        22.0444226714        5.9161048852        1.9963735520
  H        23.7848118958        5.7947526104        6.8247748563
  H        44.9538645652       34.3904390519        1.7003155391
  H        44.9017865169       34.2067791672       14.4855888684
  H        40.6660666779       33.2091550210        2.8582695834
  H        23.1503712107        1.9579474862        0.0104951055
  H        25.8241582179       19.6391589676       11.8914889578
  H        23.6524981939       19.6858213159       10.6616554045
  H        22.3434458476       16.2279114428       12.8590513443
  H        24.5191364250       16.1981150991       14.0873219900
  H        23.7220585497       17.6578695493        9.2408135322
  H        35.1595976973       15.4502713034       11.9799869924
  H        37.2792363947       15.4242512880       10.6614540068
  H        38.6921736074       18.8213501832       12.8898105739
  H        36.5647066620       18.8306026890       14.2083390612
  H        37.2311081526       17.4153075375        9.2403266619
  H        20.3579912861       17.9811523740       12.6638959808
  H        35.2341273825       15.4454842271        4.0451102000
  H        37.3624326188       15.4117799921        5.3548951342
  H        38.7260806896       18.8792798057        3.2067361894
  H        36.5902277631       18.8972379997        1.8986478594
  H        37.2504659332       17.4229521996        6.7960659258
  H        35.1528514842       26.6758387635        3.3975485511
  H        28.4930228862       21.0759170643       15.8765424539
  H        25.7541904911       19.6198483572        4.1760056945
  H        23.5708931034       19.6722189762        5.3893377519
  H        22.2929702958       16.1808551795        3.2269505213
  H        24.4772658563       16.1518283990        2.0063925909
  H        23.7003983502       17.6415946118        6.8010373745
  H        29.0007051447       21.7205420062        1.7497713892
  H        29.2082049150       21.7064674835       14.5711041529
  H        32.1764526576       18.6200070126        2.8553328948
  H        27.3678822969       19.0179742022        0.0795619725
  H        14.8483808426       19.6438700542        4.1497755346
  H        17.0106347363       19.6859522102        5.3937641861
  H        18.3012183403       16.1841299000        3.2562516220
  H        16.1348668244       16.1572946879        2.0121828379
  H        16.9197446714       17.6860896809        6.8544580551
  H        46.0921512260       15.4582302193        4.0861324680
  H        43.9697359556       15.4234217155        5.4011304307
  H        42.5722528301       18.8542891898        3.2143098850
  H        44.6944922044       18.8635741151        1.8896149693
  H        44.0346026177       17.3728128758        6.8517732306
  H        20.2880779436       17.9174871732        3.4271250510
  H        46.0385931270       15.3930141011       12.0261181103
  H        43.9059723703       15.3418287625       10.7308513163
  H        42.5216384587       18.7966798238       12.8866936422
  H        44.6612738530       18.8349660700       14.1813475261
  H        44.0149139266       17.3418916735        9.2918920078
  H        46.1995928399       26.6827881914       12.6182675905
  H        52.7413963643       21.0627123416        0.1998269125
  H        14.8781104167       19.6720072174       11.8888166775
  H        17.0787692956       19.7443840590       10.7085712375
  H        18.3376638486       16.2333541467       12.8491750734
  H        16.1388201865       16.1842585800       14.0385183533
  H        16.9413428507       17.7038270939        9.2918299568
  H        52.3230084557       21.6735091761       14.2889971656
  H        52.0137250565       21.7024578574        1.5007846728
  H        49.0681167888       18.6079149734       13.1988477848
  H        13.2480789616       19.0159472254       15.9723567425
  H        29.9570018964       12.4303728266        4.2127784793
  H        28.8833166422       10.5042492250        5.3919603760
  H        25.2321907751       11.2280212125        3.2389795823
  H        26.3218077972       13.1474594233        2.0604606665
  H        27.1678028539       11.6714916306        6.7979307063
  H        31.0026163380       22.7729277735        4.0179818830
  H        32.0188477113       24.6432498956        5.3235777101
  H        35.7018768767       24.1351911200        3.1606478717
  H        34.6665923250       22.2680136190        1.8534955992
  H        33.6933470283       23.5709588888        6.7608263332
  H        25.6970508394        8.5997293557        3.4117796932
  H        30.9391916906       22.7263576371       11.9396466636
  H        31.9693300614       24.5819152846       10.6285856051
  H        35.6175467815       24.1189907304       12.8603491164
  H        34.5689561596       22.2654443459       14.1726301718
  H        33.6676395344       23.5580600205        9.2031392618
  H        40.5936662521       17.0902825024       12.6566794577
  H        32.5085684603       14.1459727472        0.2474633162
  H        29.8983381297       12.5270404345       11.9162541539
  H        28.8684650516       10.6240003613       10.6628256721
  H        25.2083594780       11.1772836679       12.8523526393
  H        26.2606488345       13.0632206339       14.1136848704
  H        27.1667364592       11.6846388389        9.2395672121
  H        33.3107509082       14.2269835850       14.4639603012
  H        33.4101702471       14.4077208944        1.5995081766
  H        32.1230066743       18.5058229106       13.1659235426
  H        30.2155803786       14.1870202749        0.0769804289
  H        16.1183144335        2.9634345705        4.1348326095
  H        14.9532300040        4.8205699309        5.3275425699
  H        17.3664242139        7.6860235355        3.2152963845
  H        18.5150686827        5.8184839533        2.0155073570
  H        16.7535564518        5.7395721242        6.7766564307
  H        44.8278823547       32.1403810558        3.9824564853
  H        45.9372508096       30.3415308816        5.3118602579
  H        43.6831692992       27.3781970325        3.1571606572
  H        42.6003283405       29.1900684972        1.8145801980
  H        44.2304140503       29.4367543940        6.7740442078
  H        14.8515298865        8.5465454952        3.3684445640
  H        44.8997761718       32.2340994625       11.9265590870
  H        46.0246876199       30.4130695852       10.6470601071
  H        43.7640114181       27.4840859829       12.8406475700
  H        42.6461562806       29.3178008131       14.1197009935
  H        44.2685005272       29.4704904618        9.2131221271
  H        35.0804131742       26.6217524704       12.6260311743
  H        36.6051117255       35.1341101505        0.1856859469
  H        16.1435783439        3.0130243935       11.8989954039
  H        14.9740441075        4.8564140305       10.6832719570
  H        17.3960981496        7.7473071133       12.7500690757
  H        18.5431243334        5.8934204403       13.9776897121
  H        16.7645980327        5.7554690398        9.2141719263
  H        36.2783320134       34.4828452353       14.2679609155
  H        36.3805785889       34.2093465617        1.5048024257
  H        40.5806675967       33.2028443904       13.1483076983
  H        17.4707786923        1.9478587556       15.9690466512
  H        28.9274653207       19.2814012334        4.4368156732
  H        29.6692288864       19.6294020773       11.5466271664
  H        31.9425210849       15.7827139453       11.5617496483
  H        31.4113039807       15.5748583259        4.4971141216
  H        28.2609813129       17.4976181755        6.7995163611
  H        29.7406928779       15.1061863818        6.3727775938
  H        31.5561140447       19.8699100520        9.2106169591
  H        33.0066489467       17.1005699727        9.3027036361
  H        28.7400294780       16.6482986908        9.5905218663
  H        18.8531177403        0.8689961989        4.3402245430
  H        40.5281692041       35.2291226283       11.9468796869
  H        42.3243062393       34.4190776071       11.5851247826
  H        22.0875104237        0.6920527353        4.3567664424
  H        11.5967090173       18.7128746625        4.3878084068
  H        52.2649178826       18.4312148132       11.6719827289
  H        49.2546309821       16.4770498372       11.5796791066
  H        10.1496560987       15.7982769776        4.2982108406
  H        50.8501196236       17.6925399903       11.9490340234
  H        10.0458880935       17.3945585749        4.0570407705
  H        20.2143652366        0.0021881592        4.0470937815
  H        39.1839427325       36.1247881091       11.6814495965
 Ni        30.9002871237       17.7420588459       10.7460028347
 Ni        30.9842800987       16.3760587332        8.1576693432
 Ni        29.7623246765       18.7928394793        8.0755616487
 Ni        30.1754908363       17.4333619411        5.1665972653
  O        10.6499810259       14.3651079370       13.4807144871
  O        12.6131887414       14.6574720651       14.5788046142
  O        49.1481696066       16.8458348516       15.9845826772
  O        50.3503248464       20.9358162295       13.6428732864
  O        48.3486080931       20.5933840876       14.6607736093
  O        11.0518847357       17.0537828541       14.4956194075
  O        50.3210725001       20.8816830874        2.4119812233
  O        48.3467754996       20.5868256733        1.3322649641
  O        49.5438464856       18.2484276922        2.0733292646
  O        12.3593435305       18.6247341565        0.0048042874
  O        48.6932670094       14.1485492885       14.7462065464
  O         8.2099128300       14.2103853861        1.3276267497
  O        10.7353930935       14.5067487739        2.6694405716
  O        12.5718347686       14.5827934399        1.3336193250
  O        22.8444587819        2.0428393317       13.4822024961
  O        21.6054357246        3.5921419404       14.5846262051
  O        42.0583078429       34.1374540493       15.9739110891
  O        37.9818891830       33.1382817214       13.5674089225
  O        39.2182862837       31.5763996041       14.6617186657
  O        20.3084115499        1.0395603705       14.4970176427
  O        38.0245459400       33.1854616671        2.4203907489
  O        39.2193482688       31.5838744652        1.3313046896
  O        40.6522544387       33.7693835608        2.0653395533
  O        18.2554883070        1.3767238042        0.0018801611
  O        44.6222433906       35.1005398136       14.7536543422
  O        24.2053956053        0.0000401931        1.3259236933
  O        22.7529377056        2.0578882679        2.5889720907
  O        21.6243112876        3.5959558298        1.3475259971
  O        27.4940968005       18.7498088615       13.4888092582
  O        26.7629622024       16.9303349691       14.6451409707
  O        30.6357112724       19.3569372579        0.0189646126
  O        33.5908310247       16.2721190703       13.6614972282
  O        34.2761028503       18.1668510841       14.7270105393
  O        29.5768561348       17.0535215610       14.5653531190
  O        33.6237900105       16.3309486317        2.4146312237
  O        34.3038843633       18.2503320293        1.4076233685
  O        31.6534062623       18.3194147976        2.0982724575
  O        30.3200381791       15.1523877247        0.0873451420
  O        28.5527684884       21.0305382597       14.8267667990
  O        28.5107255753       20.9548837907        1.4053873616
  O        27.4541738478       18.6772427155        2.6627807570
  O        26.6926757295       16.9256513027        1.4190857981
  O        13.1485698180       18.6928813876        2.5925392855
  O        13.9191089912       16.9161821675        1.4099889911
  O        50.5966594997       19.3503454515        0.0255552796
  O        47.6835352287       16.3270086363        2.4223826556
  O        46.9527816335       18.1762101632        1.3288672937
  O        11.0699547484       17.0154834787        1.4947233933
  O        47.6760500511       16.3355495897       13.6479546550
  O        46.9282692614       18.2358971264       14.6601347151
  O        49.5689727078       18.3177315831       13.9771728313
  O        10.3187507559       15.1000717380        0.0021866573
  O        52.6707996899       21.0278798613        1.2469239337
  O        12.1468771515       20.8912429734       14.6681616755
  O        13.1080338182       18.6136232804       13.3205659171
  O        13.9570292137       16.9870377203       14.6604143059
  O        29.9930913857       14.4430467589        2.7385605904
  O        28.0893012492       14.6528474156        1.5008995757
  O        32.1409311949       16.8485885627        0.0717099013
  O        30.9665049705       20.9513063329        2.4111386782
  O        32.9464522296       20.5994275992        1.3382956314
  O        29.5681742366       17.0716022224        1.5817781503
  O        30.8728554019       20.9478548307       13.6545795835
  O        32.8765728137       20.5873562202       14.6592182932
  O        31.6865602112       18.2492382459       13.9932065254
  O        28.2594293161       18.6340703717        0.0753237915
  O        32.4932931960       14.2119431764        1.3311824919
  O        32.4062371015       14.2137507026       14.8195784584
  O        29.9174819758       14.4355447448       13.4856291729
  O        28.0380318729       14.5883057098       14.7475720698
  O        17.8892524803        1.9666524987        2.6679285085
  O        18.9562459025        3.5271724583        1.4131151759
  O        39.1686042173       34.1389025483        0.0023130318
  O        43.2802542943       33.0589890146        2.3368039929
  O        42.0345693303       31.5064356129        1.2467531780
  O        20.3176564859        1.0367830663        1.4852688539
  O        43.2760922716       33.1825906698       13.5697985374
  O        42.0052850626       31.5841013807       14.5778828129
  O        40.5790254832       33.7750345949       13.9307744170
  O        22.3673145358        1.3846361389        0.0030770955
  O        36.6727917478       35.0998190032        1.2383597141
  O        16.4455885646        0.0643762046       14.6632442806
  O        17.9364926176        2.0434047936       13.3212737028
  O        18.9190338928        3.5931558807       14.6607963948
  O        29.8997447231       18.8480906566       12.0805011190
  O        29.7449852622       18.9803214582        3.9961731626
  O        31.3453476588       16.3410090491       12.0918093910
  O        31.3999383219       16.4083867882        3.9894699842
  O        32.1971893507       16.6385014303        9.5743580670
  O        29.5337129501       17.1419967396        9.3257450844
  O        30.3846673415       15.8293619489        6.4317261000
  O        31.9841113866       18.4514922169        5.8201422417
  O        30.7511076539       19.4165249185        9.5079107819
  O        28.8136232382       18.2444269418        6.5063004945
  O        39.4569547475       35.2440500855       11.9968175897
  O        19.1410522690        0.0044590359        3.9956586054
  O        41.9695340886       35.1725715590       12.0820377674
  O        21.6911708012       -0.0693530557        3.9010232319
  O        51.3651015233       18.6142618716       12.0002382986
  O        10.7510018987       18.7471474749        3.9100647841
  O        50.0792078043       16.4127470903       12.0866520919
  O         9.5239741775       16.4831519151        3.9963340595
 Zr         9.2977232587       16.0527007943       14.1774256379
 Zr        49.8371074176       16.0066038761        1.7513197758
 Zr        22.0733281818        0.0300699620       14.1838861217
 Zr        42.4609857861       35.1536999810        1.8061470199
 Zr        29.5958659522       19.0660533541       14.2259556562
 Zr        29.5602648933       19.1795510651        1.8365545395
 Zr        11.0388419116       19.0518489720        1.8329630457
 Zr        11.0448148387       19.1547268996       14.2457027765
 Zr        31.3559364444       16.0999217174        1.8456634188
 Zr        31.3858546712       16.0066690912       14.2485275122
 Zr        18.6011833860       -0.0010275209        1.7683545266
 Zr        18.5065525876       -0.0072048569       14.2086413538
 Zr        12.3029907385       16.3236486886       15.9852062002
 Zr        48.6179017342       18.8333529299        0.0152164369
 Zr        20.3151128141        2.4737581914       15.9853720763
 Zr        40.6437509794       32.6875019817       15.9731872017
 Zr        28.3412112589       16.3358639717        0.0836091994
 Zr        32.6152562275       18.8329627124        0.0326165350
  H        31.7501010106       19.3055674740        5.4037183023
  H        32.5058144082       17.9563378260        5.1514495616
  H        30.2197624396       19.9018770362        7.2725129732
