     574
 i =      207, E =     -4778.8403475829
  C        11.8587929112       14.0535786798       13.7364154729
  C        12.4562850865       12.8906105838       13.0180957913
  C        11.7045063612       12.1715680350       12.0765977654
  C        12.2808846437       11.1093300541       11.3842896780
  C        13.6215265183       10.7397074283       11.6118595877
  C        14.3547741209       11.4434567272       12.5851229335
  C        13.7819254264       12.5084811589       13.2765864528
  C        14.2610371942        9.6490376816       10.8384552464
  C        14.2563920371        9.6569298416        9.4167596636
  C        13.7432562997       10.7591040340        8.6629059094
  C        49.1269182037       21.2332517942       13.8745692371
  C        48.5501592007       22.4012149116       13.1474771533
  C        49.3002313854       23.0686682128       12.1666114561
  C        48.7332992091       24.1077992951       11.4333890081
  C        47.4027125908       24.5093069856       11.6619473187
  C        46.6716571726       23.8602985075       12.6752934358
  C        47.2341565545       22.8154199053       13.4046454318
  C        46.7724496894       25.5870116777       10.8646953669
  C        46.7614165476       25.5574142270        9.4429364231
  C        47.2614233303       24.4423647246        8.6994284117
  C        14.8603727312        8.5705855276        8.7035433938
  C        14.8917106114        8.5970706840       11.5151566653
  C        49.1133280494       21.2035248635        2.1504600054
  C        48.5279515544       22.3648573082        2.8777049234
  C        49.2672078355       23.0256239747        3.8705502948
  C        48.6908853594       24.0601745684        4.6020345974
  C        47.3604781371       24.4569420114        4.3637777942
  C        46.6400358807       23.8120282013        3.3402794962
  C        47.2136037722       22.7761335750        2.6084949705
  C        46.7220205195       25.5319023495        5.1548082183
  C        46.7336614481       25.5282489543        6.5765106304
  C        47.2491427700       24.4290482427        7.3328784816
  C        40.6354264476       17.1561320735        7.3296877198
  C        40.6545237751       17.1917890498        4.5208517638
  C        11.8830296144       14.0865621809        2.2905836404
  C        12.4723725075       12.9107708333        2.9948786463
  C        11.7147779688       12.1773965284        3.9207773278
  C        12.2813987797       11.0949689380        4.5892244376
  C        13.6202875792       10.7214150535        4.3575501796
  C        14.3583503034       11.4371833627        3.3969749212
  C        13.7928992728       12.5183312693        2.7242641295
  C        14.2539015330        9.6246634022        5.1279631987
  C        14.2526262009        9.6446186622        6.5498018961
  C        13.7427403200       10.7535752747        7.2968594930
  C        22.5124120493        3.2441191372       13.7486311917
  C        23.2290807506        4.3489844676       13.0502529060
  C        24.2261143659        4.0676043920       12.1045613573
  C        24.8552874032        5.1063131284       11.4232526130
  C        24.5030702103        6.4484218794       11.6679372627
  C        23.5343881184        6.7214762615       12.6507763643
  C        22.9004831532        5.6844494245       13.3302815457
  C        25.1099067209        7.5541438145       10.8920205876
  C        25.0768100686        7.5488600092        9.4707127619
  C        24.3698372737        6.5518930173        8.7259442049
  C        38.3028002190       31.9303082011       13.8439764532
  C        37.5734035480       30.8412457381       13.1342421191
  C        36.6152642478       31.1455346305       12.1552765989
  C        35.9983528391       30.1253847497       11.4366871931
  C        36.3248355860       28.7762678203       11.6761586638
  C        37.2532689026       28.4794390549       12.6915868189
  C        37.8744849890       29.4982994479       13.4087700527
  C        35.7223730616       27.6846528707       10.8793489214
  C        35.7542932558       27.6986886261        9.4581257202
  C        36.4617715039       28.6996209516        8.7204432060
  C        25.6993181066        8.6183030249        8.7498938469
  C        25.7123822314        8.6265393736       11.5618482198
  C        38.3287202183       31.9619194049        2.1613161424
  C        37.6074754025       30.8881257052        2.9027748542
  C        36.6788809711       31.1957234014        3.9088879051
  C        36.0695659194       30.1764106267        4.6379863094
  C        36.3747320448       28.8240389091        4.3847397077
  C        37.2807054335       28.5264344962        3.3483416457
  C        37.8921037620       29.5422148081        2.6204627380
  C        35.7678431676       27.7245247348        5.1692577498
  C        35.7775008489       27.7190773949        6.5913365201
  C        36.4722577300       28.7098624816        7.3538953878
  C        46.1356296166       26.6208857069        7.2866234516
  C        46.0880314062       26.5802342683        4.4787466730
  C        22.4595962730        3.2559587135        2.2633733107
  C        23.1507587773        4.3655866380        2.9879981077
  C        24.1518196388        4.0811068806        3.9303086182
  C        24.7768358548        5.1122422133        4.6275124619
  C        24.4211378421        6.4576028006        4.4046268275
  C        23.4429345601        6.7354163891        3.4310674143
  C        22.8131764465        5.7044444421        2.7346101263
  C        25.0509166029        7.5563925160        5.1787228693
  C        25.0471429460        7.5493011965        6.6016220956
  C        24.3540598899        6.5529494696        7.3593433534
  C        26.6202788775       17.8591122155       13.7714582570
  C        25.3134216177       17.9079939562       13.0479906438
  C        25.0608256052       18.8938587012       12.0807283050
  C        23.8468096283       18.9138743852       11.3964984555
  C        22.8494920685       17.9517900507       11.6566468466
  C        23.0990602309       16.9892658963       12.6533213617
  C        24.3144748974       16.9633461436       13.3352206077
  C        21.5764899661       17.9342166716       10.8927363626
  C        21.5766356365       17.9068590970        9.4702437000
  C        22.7818893313       17.7809339620        8.7097391525
  C        34.4434544592       17.1907763669       13.9147938699
  C        35.7372585925       17.1421268534       13.1741595899
  C        35.9447020223       16.1775672894       12.1761089943
  C        37.1241935807       16.1721005023       11.4374170178
  C        38.1284129067       17.1289480619       11.6795980672
  C        37.9253112521       18.0726800248       12.7041823918
  C        36.7420246337       18.0848324910       13.4383997666
  C        39.3817208357       17.1442165393       10.8929412358
  C        39.3772387031       17.1658048151        9.4716157043
  C        38.1699377427       17.2900825764        8.7145912118
  C        20.3301328871       17.9224667640        8.7616406975
  C        20.3514780059       17.9385927292       11.5748964302
  C        34.4815203384       17.2505279417        2.1772272931
  C        35.7829218257       17.1840927196        2.9050436533
  C        36.0020071576       16.1980938076        3.8788791222
  C        37.1847755788       16.1873458516        4.6126865618
  C        38.1777736155       17.1604941269        4.3894830267
  C        37.9653805256       18.1222474824        3.3843331999
  C        36.7795203284       18.1394071316        2.6550288496
  C        39.4239216952       17.1795378735        5.1856889349
  C        39.3987379060       17.1837043152        6.6064219794
  C        38.1804333043       17.2964932250        7.3479037185
  C        35.1458106180       26.6411132738        7.2961409767
  C        35.1787873336       26.6526847353        4.4869697861
  C        26.5709771952       17.8260065858        2.3295189797
  C        25.2555467448       17.8720484561        3.0351638456
  C        24.9932666202       18.8737336934        3.9820738744
  C        23.7756253145       18.8980628128        4.6565695730
  C        22.7911194345       17.9209933461        4.4071928295
  C        23.0475558942       16.9447890807        3.4273288780
  C        24.2659534591       16.9180889436        2.7516422981
  C        21.5276786800       17.9003413268        5.1802916956
  C        21.5513716618       17.8886089303        6.6017612468
  C        22.7696595678       17.7724776874        7.3436282918
  C        14.0464756034       17.8285459063        2.2940553627
  C        15.3506331199       17.8845324140        3.0194744855
  C        15.6070817153       18.8855322093        3.9694415436
  C        16.8159765220       18.9046321036        4.6624787678
  C        17.8025528618       17.9256602580        4.4274856249
  C        17.5509439422       16.9491671681        3.4452371574
  C        16.3414490535       16.9252651770        2.7540068662
  C        19.0715788803       17.9069597076        5.1962298981
  C        19.0701440758       17.9011984094        6.6186684430
  C        17.8632925079       17.8000272575        7.3798801059
  C        46.8065745470       17.2208644563        2.1650922550
  C        45.5188522353       17.1667470938        2.9139424169
  C        45.3108726634       16.1947830334        3.9045267779
  C        44.1308429169       16.1867374550        4.6433093367
  C        43.1301458906       17.1507462551        4.4125152610
  C        43.3356693252       18.1024791203        3.3957215350
  C        44.5162067113       18.1145372431        2.6581754326
  C        41.8777888698       17.1705257741        5.2006517507
  C        41.8826557602       17.1683593275        6.6221864722
  C        43.0914762550       17.2594655643        7.3815355338
  C        20.3168527196       17.9124465182        7.3268608706
  C        20.2956133925       17.8897514642        4.5137644878
  C        46.7866213563       17.2309093498       13.8857661354
  C        45.4830683873       17.1270115818       13.1725998005
  C        45.2640517816       16.1335146664       12.2066536183
  C        44.0760647730       16.1123796833       11.4806375829
  C        43.0792911066       17.0815717337       11.7047776337
  C        43.2878024345       18.0433718874       12.7105217497
  C        44.4770112302       18.0712484609       13.4310896600
  C        41.8346852500       17.1118783906       10.9073474918
  C        41.8609052817       17.1367060886        9.4870704793
  C        43.0811054609       17.2423409234        8.7478557705
  C        46.1533994533       26.6372770643        8.7211687634
  C        46.1624471796       26.6560933304       11.5308298187
  C        14.0455401466       17.8315411880       13.7034692835
  C        15.3664138170       17.9053615663       13.0127576333
  C        15.6388478321       18.9183299112       12.0812063580
  C        16.8676720017       18.9547361218       11.4259849260
  C        17.8519083669       17.9775083010       11.6768372876
  C        17.5864312161       16.9938184272       12.6467949003
  C        16.3595253288       16.9566935125       13.3052801725
  C        19.1191226523       17.9513824566       10.9078309460
  C        19.0950244210       17.9223123301        9.4864250893
  C        17.8754445829       17.8094066297        8.7459301675
  C        28.8074570831       14.0930931996        2.3986818842
  C        28.1896497356       12.9226165628        3.0896566800
  C        28.9184275042       12.1622903159        4.0164886632
  C        28.3160295582       11.0890772926        4.6687187158
  C        26.9715134475       10.7501965731        4.4152119712
  C        26.2634621247       11.4908064197        3.4521400809
  C        26.8630241954       12.5655486973        2.8002165396
  C        26.3032337204        9.6686509055        5.1750502332
  C        26.2972965651        9.6924366169        6.5958027767
  C        26.8077444154       10.8026381831        7.3406886200
  C        32.1800041844       21.2424131364        2.1413971794
  C        32.7779081861       22.4045044128        2.8647417748
  C        32.0293767557       23.0815364749        3.8403805922
  C        32.6008727594       24.1184083798        4.5718460017
  C        33.9358278687       24.5072952370        4.3475596886
  C        34.6669034494       23.8482392613        3.3410765334
  C        34.0983889571       22.8052961159        2.6120408451
  C        34.5637210661       25.5835892734        5.1475219811
  C        34.5533561337       25.5571263969        6.5691668107
  C        34.0417828394       24.4441935390        7.3085084780
  C        25.6882026777        8.6150333960        7.3154063971
  C        25.6638581684        8.6198061320        4.5018112570
  C        32.1021385290       21.2290558841       13.8753620539
  C        32.6938294215       22.3808823468       13.1331347842
  C        31.9579374857       23.0405448237       12.1366068261
  C        32.5377519358       24.0707159349       11.3997878736
  C        33.8665831254       24.4705742840       11.6420013674
  C        34.5849951627       23.8242567406       12.6660162162
  C        34.0101250191       22.7885450952       13.3979169490
  C        34.5068915923       25.5514708275       10.8576290098
  C        34.5237313519       25.5410791017        9.4358393959
  C        34.0266546759       24.4365254965        8.6750194756
  C        40.6239574174       17.1434701934        8.7634600726
  C        40.6044151869       17.1343930664       11.5727088757
  C        28.7503733738       14.0703418928       13.8113763240
  C        28.1419848814       12.9223023054       13.0731198780
  C        28.8775953767       12.2276776219       12.1008246735
  C        28.2979132385       11.1693966675       11.4046507319
  C        26.9664740174       10.7801083459       11.6550296169
  C        26.2480123758       11.4630903652       12.6540410191
  C        26.8262246738       12.5213523555       13.3523076569
  C        26.3235959605        9.6891628670       10.8836546039
  C        26.3083981579        9.7034931557        9.4619520102
  C        26.8103303907       10.8094930125        8.7064317143
  C        18.1355191667        3.1809763049        2.3223972412
  C        17.4061263387        4.2781991894        3.0209093643
  C        16.3905233145        3.9998455628        3.9485615669
  C        15.7427384988        5.0398088752        4.6120231611
  C        16.0945029502        6.3835457827        4.3721910193
  C        17.0836704498        6.6530958462        3.4082041978
  C        17.7327901345        5.6157478484        2.7432027012
  C        15.4702413928        7.4912651001        5.1352335372
  C        15.4855326587        7.4905696463        6.5569449306
  C        16.1870055185        6.4969200586        7.3101473026
  C        42.9459486494       31.8595074862        2.0779517986
  C        43.6463133950       30.7719005694        2.8219416750
  C        44.5917992806       31.0932420520        3.8080607569
  C        45.1975271641       30.0877135631        4.5557248355
  C        44.8711708771       28.7346385484        4.3408164888
  C        43.9454459091       28.4202694402        3.3275190423
  C        43.3366030822       29.4253930364        2.5794863907
  C        45.4887717043       27.6553475513        5.1439914668
  C        45.4928818340       27.6809739349        6.5656841930
  C        44.8057876722       28.6889958479        7.3123374273
  C        14.8566038822        8.5630734566        7.2693233053
  C        14.8750087479        8.5630824259        4.4566650511
  C        42.9464419990       31.9615203435       13.8038237145
  C        43.6916973555       30.8854483262       13.0903808075
  C        44.6563127898       31.1913846105       12.1181007104
  C        45.2778463589       30.1717594931       11.4004508376
  C        44.9540784550       28.8214179999       11.6380040218
  C        44.0205676276       28.5238229049       12.6487811440
  C        43.3922382155       29.5405529190       13.3609400857
  C        45.5631425711       27.7240582616       10.8527307673
  C        45.5333799304       27.7174118815        9.4314384939
  C        44.8270119193       28.7076354295        8.6785228499
  C        35.1323698022       26.6317010685        8.7308640741
  C        35.1172362981       26.6101065467       11.5406140435
  C        18.1485359490        3.2470321316       13.7014595286
  C        17.4298544443        4.3438492240       12.9923107675
  C        16.4147663978        4.0525428533       12.0686175719
  C        15.7664482463        5.0831513858       11.3932122681
  C        16.1210130039        6.4283979114       11.6160334120
  C        17.1122419673        6.7118263299       12.5734387991
  C        17.7599102591        5.6829311751       13.2532227140
  C        15.4905688972        7.5241267101       10.8436138538
  C        15.4964788561        7.5074521695        9.4224836571
  C        16.1932136527        6.5057554593        8.6757516635
  H        10.6722973345       12.4655533654       11.8997762574
  H        11.6945364771       10.5507119136       10.6579017208
  H        15.3918825208       11.1690328521       12.7666541419
  H        14.3514531980       13.0718985993       14.0118223661
  H        13.3761908112       11.6311958113        9.1962379515
  H        50.3229821282       22.7487183910       11.9819516538
  H        49.3198552191       24.6231866164       10.6759479168
  H        45.6421181579       24.1609775493       12.8583581815
  H        46.6630968293       22.2900419972       14.1666085438
  H        47.6300190672       23.5760141022        9.2411166509
  H        14.8720187758        8.5882995118       12.6034611341
  H        50.2872651769       22.7027953551        4.0654407579
  H        49.2693214160       24.5756779297        5.3654737958
  H        45.6106532277       24.1093257384        3.1511846487
  H        46.6527993554       22.2539706668        1.8369206846
  H        47.6079942682       23.5519659782        6.8019689288
  H        40.6607742645       17.1610483945        3.4329997080
  H        48.6870587007       14.0949621485       15.7948911315
  H        10.6812308909       12.4663181776        4.0979967608
  H        11.6895453219       10.5243819231        5.3017190298
  H        15.3938560482       11.1594619985        3.2112112848
  H        14.3653035249       13.0879124052        1.9959509242
  H        13.3759039167       11.6221709819        6.7581934886
  H        47.9301987186       14.2182870102        1.7160868428
  H        47.7801417670       14.3737330225       14.4900722631
  H        49.0843942065       18.5527701137        2.8727536633
  H        10.4161069535       14.1342698067        0.0038663455
  H        24.4854114031        3.0286196449       11.9136487740
  H        25.6282624525        4.8880135528       10.6895703620
  H        23.2552184021        7.7548439532       12.8457592654
  H        22.1301468402        5.8855857407       14.0707400520
  H        23.8091480136        5.7956384601        9.2675627978
  H        36.3791213530       32.1888494289       11.9597324888
  H        35.2548509244       30.3641883107       10.6794241308
  H        37.5124362650       27.4401993384       12.8830142487
  H        38.6171562572       29.2776281692       14.1717819098
  H        37.0277317819       29.4489846970        9.2661797395
  H        25.7510462379        8.6080409714       12.6495114384
  H        36.4554109491       32.2396669320        4.1169229009
  H        35.3440388429       30.4204506150        5.4108299086
  H        37.5282275550       27.4864942709        3.1458456481
  H        38.6142100808       29.3173779603        1.8393439098
  H        37.0472426124       29.4666519081        6.8280868036
  H        46.1095023639       26.5876645445        3.3907110517
  H        44.6682328943       35.1161169584       15.8087910663
  H        24.4309714988        3.0433115621        4.0978662235
  H        25.5570419386        4.8845508864        5.3506984330
  H        23.1565149694        7.7694276882        3.2499995091
  H        22.0421376325        5.9160364275        1.9973786610
  H        23.7805998850        5.7981344248        6.8291224032
  H        44.9537124278       34.3903772918        1.7002929287
  H        44.9016332952       34.2067216963       14.4854970954
  H        40.6657804478       33.2089022703        2.8581661612
  H        23.1505088598        1.9576715583        0.0107184102
  H        25.8263183767       19.6397317336       11.8781335231
  H        23.6570334863       19.6847680444       10.6526172480
  H        22.3411419894       16.2373088564       12.8634646193
  H        24.5179632897       16.2061608237       14.0888548503
  H        23.7228837076       17.6633222543        9.2390134017
  H        35.1650158466       15.4440789392       11.9862051269
  H        37.2834719529       15.4182205952       10.6695931330
  H        38.6938039727       18.8190531319       12.8944613591
  H        36.5661957238       18.8290192444       14.2117097461
  H        37.2300039241       17.4097833777        9.2459825249
  H        20.3579974111       17.9840669617       12.6625497169
  H        35.2285144451       15.4536440648        4.0532480095
  H        37.3544360305       15.4201609786        5.3650284330
  H        38.7270368316       18.8791101107        3.2083948215
  H        36.5926370604       18.8980178305        1.8985265351
  H        37.2482452887       17.4201397036        6.8043386510
  H        35.1517092752       26.6775225157        3.3992191279
  H        28.4960742603       21.0772361549       15.8755308472
  H        25.7559152791       19.6257899946        4.1718136432
  H        23.5726174116       19.6789308632        5.3863343810
  H        22.2953112868       16.1841064300        3.2286717992
  H        24.4801152671       16.1528868247        2.0093306099
  H        23.7011323682       17.6481400070        6.7995718605
  H        28.9960521390       21.7231874185        1.7509771702
  H        29.2003361605       21.7109307936       14.5634129589
  H        32.1444831654       18.6277756547        2.8744560162
  H        27.3714517908       19.0244974404        0.0778074571
  H        14.8486372261       19.6441668437        4.1493489051
  H        17.0112608005       19.6869921824        5.3927608102
  H        18.3024158039       16.1856612869        3.2547174872
  H        16.1354779166       16.1579808972        2.0115134107
  H        16.9209922175       17.6830216799        6.8525482768
  H        46.0907301877       15.4594667250        4.0882569521
  H        43.9687663825       15.4253681953        5.4030981586
  H        42.5707768106       18.8546569632        3.2142152031
  H        44.6924956271       18.8633807349        1.8896350731
  H        44.0333473876       17.3748343948        6.8528487810
  H        20.2893407474       17.9224087693        3.4257147043
  H        46.0405322903       15.3936820082       12.0260136376
  H        43.9076966876       15.3427275050       10.7305384106
  H        42.5217795950       18.7949801631       12.8894253899
  H        44.6616101150       18.8332311545       14.1842371683
  H        44.0151552499       17.3433779261        9.2929148645
  H        46.1993124706       26.6826361060       12.6182741297
  H        52.7412834353       21.0626950279        0.1998231179
  H        14.8777026489       19.6708568036       11.8872233757
  H        17.0779656434       19.7431033593       10.7064212764
  H        18.3378346592       16.2331033238       12.8482950474
  H        16.1391974558       16.1841710755       14.0379731959
  H        16.9422443655       17.6995880445        9.2901531023
  H        52.3230383027       21.6735038970       14.2889956746
  H        52.0136114772       21.7023516610        1.5008445675
  H        49.0677998687       18.6078501272       13.1990017224
  H        13.2478352380       19.0162437877       15.9722479130
  H        29.9578648390       12.4216406027        4.2058398762
  H        28.8824869076       10.4981320981        5.3853079588
  H        25.2245247984       11.2386806588        3.2496684943
  H        26.3148757178       13.1580326390        2.0717387248
  H        27.1716620527       11.6701734790        6.7986645427
  H        31.0021916166       22.7715168503        4.0178951281
  H        32.0149528133       24.6431093461        5.3234001306
  H        35.6999883686       24.1395359947        3.1624539579
  H        34.6676838348       22.2720260346        1.8540398382
  H        33.6842888650       23.5757250738        6.7630506430
  H        25.6896973116        8.6023946074        3.4136674040
  H        30.9341034312       22.7260152323       11.9464785712
  H        31.9606218645       24.5834375086       10.6332952494
  H        35.6138017264       24.1220813070       12.8576768278
  H        34.5699019947       22.2664039520       14.1703958027
  H        33.6582943088       23.5618706198        9.2036627585
  H        40.5970740652       17.0892400152       12.6600562909
  H        32.5105537720       14.1447734517        0.2479118118
  H        29.9050044180       12.5300871029       11.9107636170
  H        28.8763976485       10.6254641594       10.6609943760
  H        25.2178109562       11.1755767732       12.8539799346
  H        26.2684906429       13.0641678037       14.1117676950
  H        27.1752397546       11.6824333014        9.2396847231
  H        33.3108843890       14.2304479114       14.4646845139
  H        33.4099869725       14.4047047468        1.6027676244
  H        32.1268877633       18.4825042401       13.1522649439
  H        30.2219114552       14.1870563811        0.0740219939
  H        16.1184996147        2.9633498606        4.1350552693
  H        14.9533414486        4.8204163956        5.3277383905
  H        17.3658755122        7.6859929543        3.2148788049
  H        18.5145818200        5.8184122409        2.0151017825
  H        16.7535037419        5.7395284239        6.7766646459
  H        44.8280432022       32.1403258170        3.9822830572
  H        45.9373569986       30.3414650043        5.3117042604
  H        43.6828495524       27.3781869590        3.1573381973
  H        42.6000660789       29.1900174102        1.8147581923
  H        44.2303968762       29.4367373484        6.7740393376
  H        14.8512168657        8.5463165905        3.3684449091
  H        44.8999083753       32.2340616603       11.9267056928
  H        46.0247709763       30.4129847552       10.6472316309
  H        43.7635978049       27.4840910874       12.8403205871
  H        42.6457512440       29.3177290524       14.1193874220
  H        44.2684696621       29.4704948291        9.2131102621
  H        35.0742758407       26.6234882601       12.6280437017
  H        36.6050106739       35.1341071416        0.1857226479
  H        16.1437356520        3.0129642248       11.8988271320
  H        14.9741604059        4.8562941850       10.6830910355
  H        17.3955904060        7.7473147305       12.7504542396
  H        18.5426690687        5.8934001900       13.9781039392
  H        16.7645508133        5.7554460992        9.2141893545
  H        36.2781053786       34.4829593564       14.2680219456
  H        36.3801443665       34.2095154119        1.5049542348
  H        40.5802294805       33.2024262361       13.1485050875
  H        17.4707262252        1.9475837152       15.9690908673
  H        29.0991047251       19.3401353843        4.5221092403
  H        29.1763467963       19.2564010245       11.5583268658
  H        31.9452486878       15.7695993862       11.5800379217
  H        31.3573758584       15.4949989204        4.4645262169
  H        28.1548511235       17.8982676823        6.4684911741
  H        29.6728779211       15.0961733241        6.1429945922
  H        31.1995273289       19.9606910064        9.8257781132
  H        32.3078685007       17.2402379019        8.8233636267
  H        28.3000305186       17.0639579997        9.6384949587
  H        18.8534901794        0.8690810786        4.3403525592
  H        40.5280730744       35.2293825524       11.9469649090
  H        42.3239435774       34.4187878577       11.5855360940
  H        22.0879291180        0.6920266025        4.3566695328
  H        11.5968613839       18.7131392257        4.3877860612
  H        52.2648454150       18.4312978837       11.6719500556
  H        49.2552883587       16.4770683503       11.5794276669
  H        10.1503790318       15.7980994119        4.2977361581
  H        50.8501233410       17.6923642877       11.9491571131
  H        10.0462645724       17.3944505288        4.0570606809
  H        20.2148011521        0.0023788807        4.0471005873
  H        39.1838154182       36.1248263708       11.6813939578
 Ni        30.7778634172       17.6195026371       10.6612019212
 Ni        30.2734540653       16.1447601854        8.2436058893
 Ni        29.5061759647       19.0380214171        8.2458110422
 Ni        30.3048102947       17.4966475340        5.1665387313
  O        10.6499427513       14.3650320775       13.4807429998
  O        12.6131761056       14.6574817767       14.5788079087
  O        49.1481496492       16.8459062253       15.9846563279
  O        50.3503029360       20.9358436801       13.6429279050
  O        48.3485919950       20.5933713280       14.6607797612
  O        11.0518277862       17.0538457928       14.4955705175
  O        50.3210676572       20.8816534028        2.4119783324
  O        48.3467764099       20.5868605649        1.3322977707
  O        49.5437624809       18.2484453934        2.0734043768
  O        12.3592657931       18.6247006231        0.0047828572
  O        48.6932775452       14.1484919083       14.7462009474
  O         8.2098766850       14.2104171414        1.3277012627
  O        10.7354068299       14.5066941166        2.6694540839
  O        12.5718145779       14.5828062165        1.3335659916
  O        22.8445799615        2.0430406395       13.4821218282
  O        21.6055991748        3.5922897653       14.5845078469
  O        42.0581842112       34.1373333148       15.9739001595
  O        37.9818891934       33.1386574410       13.5675674165
  O        39.2181308349       31.5763744734       14.6615988186
  O        20.3083995557        1.0395298390       14.4969912192
  O        38.0246965188       33.1856983352        2.4203344331
  O        39.2192085796       31.5838191731        1.3314650646
  O        40.6522882988       33.7693196739        2.0653485386
  O        18.2555264605        1.3765705108        0.0018757982
  O        44.6222323912       35.1005234486       14.7536232461
  O        24.2053698740        0.0000776773        1.3259460484
  O        22.7530057502        2.0581627686        2.5891197250
  O        21.6243141665        3.5960764657        1.3475088665
  O        27.4981010879       18.7497355722       13.4834382949
  O        26.7620170121       16.9331562605       14.6422568173
  O        30.6381217736       19.3542439732        0.0173128825
  O        33.5899685451       16.2721338402       13.6625323194
  O        34.2754904878       18.1664371645       14.7272731606
  O        29.5777232425       17.0520351974       14.5678812322
  O        33.6251779921       16.3319182947        2.4131518387
  O        34.3042461198       18.2513005847        1.4060680546
  O        31.6558652129       18.3165437214        2.0982181605
  O        30.3218101195       15.1529085362        0.0878767247
  O        28.5525672427       21.0302663630       14.8259280489
  O        28.5114521915       20.9547010147        1.4052396746
  O        27.4577936417       18.6770770722        2.6644710908
  O        26.6933327215       16.9264706833        1.4187851257
  O        13.1487751681       18.6928736623        2.5925618254
  O        13.9192591524       16.9161713481        1.4099942610
  O        50.5965091556       19.3503242985        0.0256122995
  O        47.6830573729       16.3272287673        2.4225521941
  O        46.9525507828       18.1762013548        1.3290590577
  O        11.0698322810       17.0155283796        1.4947665976
  O        47.6765929621       16.3354113392       13.6480915288
  O        46.9289036621       18.2357939996       14.6603997336
  O        49.5689339316       18.3177293061       13.9771852221
  O        10.3187057090       15.1001139726        0.0021368452
  O        52.6707955590       21.0278902385        1.2469283213
  O        12.1468587755       20.8912106056       14.6681514477
  O        13.1081655851       18.6136044843       13.3205183320
  O        13.9571964718       16.9870674987       14.6603287222
  O        29.9920698916       14.4425854874        2.7395616122
  O        28.0894059917       14.6526366005        1.5005249709
  O        32.1417173207       16.8499689431        0.0702675978
  O        30.9669911398       20.9537139660        2.4075415043
  O        32.9473720680       20.5994259544        1.3384201565
  O        29.5687676889       17.0710670602        1.5823229475
  O        30.8740264234       20.9476452869       13.6564320239
  O        32.8777302565       20.5869846738       14.6602928089
  O        31.6847895351       18.2519511528       13.9856196837
  O        28.2615766147       18.6372210887        0.0716493285
  O        32.4934197503       14.2117002677        1.3310387766
  O        32.4058415685       14.2148138874       14.8191902948
  O        29.9229219023       14.4426744394       13.4818785175
  O        28.0412472951       14.5881635418       14.7454771670
  O        17.8892050366        1.9666370405        2.6679183931
  O        18.9562326917        3.5271414570        1.4130803348
  O        39.1686594926       34.1388936737        0.0023604266
  O        43.2802000253       33.0589970576        2.3368068053
  O        42.0345295714       31.5064468353        1.2467448353
  O        20.3176906758        1.0367258911        1.4853022912
  O        43.2761151106       33.1825574430       13.5697959408
  O        42.0053053323       31.5840694875       14.5779051143
  O        40.5790269816       33.7749422512       13.9307399950
  O        22.3672923066        1.3846079665        0.0030241156
  O        36.6727908278       35.0998199353        1.2383768495
  O        16.4455535331        0.0644233177       14.6632384119
  O        17.9364816675        2.0434147414       13.3213016376
  O        18.9190399645        3.5931447665       14.6608154926
  O        29.8937152573       18.8324113359       12.0652041524
  O        29.8301687727       18.9843175046        3.9781805745
  O        31.3904188570       16.4025681309       12.0709460271
  O        31.4364485935       16.3451936378        3.9942599177
  O        31.8500719395       16.4869293031        9.2463274564
  O        29.1899403104       17.2974790321        9.3244341710
  O        30.3285249959       15.7632294548        6.4140854849
  O        32.1519604770       18.1692640527        5.9145819718
  O        31.1706200276       19.1199517613        9.3382752703
  O        28.9856637897       18.3982606685        6.4199788939
  O        39.4569859355       35.2441690742       11.9968142080
  O        19.1415198573        0.0046594631        3.9956304635
  O        41.9697280696       35.1727939775       12.0820863029
  O        21.6913654489       -0.0693032728        3.9010230372
  O        51.3650650562       18.6143000765       12.0002649327
  O        10.7511663780       18.7471501699        3.9100367738
  O        50.0797667244       16.4127649206       12.0865933708
  O         9.5245370606       16.4830135033        3.9963005934
 Zr         9.2973105246       16.0527488603       14.1774403587
 Zr        49.8365317301       16.0066963902        1.7514111444
 Zr        22.0731567335        0.0296065846       14.1839468097
 Zr        42.4608682563       35.1532829194        1.8059802422
 Zr        29.6005631631       19.0705882499       14.2220111011
 Zr        29.5657797725       19.1828203436        1.8381395364
 Zr        11.0384542153       19.0519577198        1.8328661970
 Zr        11.0443388326       19.1548556326       14.2458207911
 Zr        31.3585130092       16.0994230803        1.8446622029
 Zr        31.3894998073       16.0170439101       14.2625796680
 Zr        18.6010064823       -0.0014131212        1.7684983404
 Zr        18.5063518960       -0.0076064031       14.2086118279
 Zr        12.3023984981       16.3237278118       15.9852119597
 Zr        48.6173114249       18.8333760281        0.0154164953
 Zr        20.3148303758        2.4732371841       15.9853778063
 Zr        40.6433724791       32.6869691217       15.9731457169
 Zr        28.3431455430       16.3396290390        0.0854414115
 Zr        32.6208415989       18.8410777796        0.0328627666
  H        32.2712190486       19.0954407761        5.6360231720
  H        32.6580981032       17.6170916261        5.2774687424
  H        28.6006848450       20.0812618225        8.8878765346
