     574
 i =      175, E =     -4778.8407158339
  C        11.8587687221       14.0535913218       13.7364194021
  C        12.4563001336       12.8907073420       13.0179810247
  C        11.7045359609       12.1715755298       12.0765469564
  C        12.2809181759       11.1093516170       11.3842196234
  C        13.6215787267       10.7397794486       11.6117724692
  C        14.3548814790       11.4436406675       12.5849121970
  C        13.7819778331       12.5086391870       13.2763788703
  C        14.2610648693        9.6490320064       10.8384423422
  C        14.2563786339        9.6568967262        9.4167429459
  C        13.7433071992       10.7590722806        8.6628487538
  C        49.1267096099       21.2333304961       13.8746810436
  C        48.5498435441       22.4012662859       13.1476086544
  C        49.2998901821       23.0685722370       12.1666245734
  C        48.7329614256       24.1076858526       11.4333856261
  C        47.4024164897       24.5093030405       11.6619796266
  C        46.6714465428       23.8604597534       12.6755023931
  C        47.2339067535       22.8155850385       13.4049019707
  C        46.7721784906       25.5869860465       10.8646860464
  C        46.7612080909       25.5573868341        9.4429213070
  C        47.2612450575       24.4423401930        8.6994259765
  C        14.8602015607        8.5704723215        8.7035121086
  C        14.8917444462        8.5970604741       11.5151305840
  C        49.1131469441       21.2034350756        2.1505068340
  C        48.5277281187       22.3648450959        2.8776276840
  C        49.2670097930       23.0255826014        3.8704803757
  C        48.6907018073       24.0601509180        4.6019464572
  C        47.3602779359       24.4568921635        4.3637534946
  C        46.6398119699       23.8119718629        3.3402758936
  C        47.2133488372       22.7760559399        2.6084807655
  C        46.7218383686       25.5318729236        5.1547765728
  C        46.7335189190       25.5282296815        6.5764824629
  C        47.2490199981       24.4290511726        7.3328722009
  C        40.6187983381       17.1031029888        7.3120058344
  C        40.6252788648       17.1145251235        4.5023063033
  C        11.8829924306       14.0865779043        2.2906460330
  C        12.4722749890       12.9107252355        2.9949151535
  C        11.7146779611       12.1773736799        3.9208280058
  C        12.2812466073       11.0948762870        4.5892061949
  C        13.6201338834       10.7213130343        4.3575479203
  C        14.3582216370       11.4370761570        3.3969974166
  C        13.7928134311       12.5182876394        2.7243462139
  C        14.2536924061        9.6244996880        5.1279247113
  C        14.2524760721        9.6444806729        6.5497631003
  C        13.7427394802       10.7535129888        7.2968027761
  C        22.5092640507        3.2463838349       13.7424193802
  C        23.2155827678        4.3531793462       13.0326220917
  C        24.2139799067        4.0753842068       12.0869237965
  C        24.8362748618        5.1152077429       11.3997465972
  C        24.4766981706        6.4572031537       11.6363979286
  C        23.5035652020        6.7266988747       12.6163849223
  C        22.8773289185        5.6886430771       13.3025425147
  C        25.0839093657        7.5650616765       10.8605365049
  C        25.0651299658        7.5578432716        9.4384046023
  C        24.3707123563        6.5559909873        8.6886071674
  C        38.3043231548       31.9301400988       13.8430170564
  C        37.5790757426       30.8402366987       13.1309596824
  C        36.6212409110       31.1425095663       12.1511711349
  C        36.0084924437       30.1209445930       11.4310780204
  C        36.3391535349       28.7727379476       11.6699131436
  C        37.2679900752       28.4779565306       12.6854984565
  C        37.8848409675       29.4980998480       13.4043290996
  C        35.7382916592       27.6797002529       10.8742756308
  C        35.7662345318       27.6934275268        9.4530993642
  C        36.4708960366       28.6951030280        8.7138105802
  C        25.6889124182        8.6295729037        8.7207459834
  C        25.6754804467        8.6430360211       11.5328939179
  C        38.3279552648       31.9613656961        2.1606434979
  C        37.6058060219       30.8865887484        2.8999300640
  C        36.6767568584       31.1922853339        3.9062222084
  C        36.0680882328       30.1716290383        4.6340676331
  C        36.3740651486       28.8196196963        4.3795038293
  C        37.2795944518       28.5238842635        3.3421852627
  C        37.8903948873       29.5409985889        2.6155667506
  C        35.7696537302       27.7190267966        5.1647102963
  C        35.7825412766       27.7135075254        6.5866874885
  C        36.4781986984       28.7050351771        7.3473267882
  C        46.1354614270       26.6208431675        7.2866136617
  C        46.0878601692       26.5802141513        4.4787197809
  C        22.4621901330        3.2568916579        2.2597488164
  C        23.1588711944        4.3693515036        2.9749563878
  C        24.1740899404        4.0902995009        3.9035507666
  C        24.8036615809        5.1254946461        4.5907487360
  C        24.4370808714        6.4687530740        4.3730445846
  C        23.4448840726        6.7412355125        3.4126372296
  C        22.8118186220        5.7064723598        2.7247157859
  C        25.0638980259        7.5697911271        5.1469006364
  C        25.0553183063        7.5598615723        6.5694317568
  C        24.3645461120        6.5580224474        7.3221507863
  C        26.5670108926       17.8315096575       13.7727530665
  C        25.2654337225       17.8890188713       13.0490904512
  C        25.0465271125       18.8530580478       12.0534915787
  C        23.8358430125       18.8851960373       11.3658393325
  C        22.8170296247       17.9519432250       11.6465701474
  C        23.0357519537       17.0107676966       12.6700462256
  C        24.2449499339       16.9767747532       13.3605084753
  C        21.5511702644       17.9386820500       10.8762538610
  C        21.5579573066       17.9063383631        9.4543655616
  C        22.7653971752       17.7626727025        8.7002494424
  C        34.4441895100       17.1965283291       13.9152830908
  C        35.7395482933       17.1404796471       13.1765620595
  C        35.9445296207       16.1671871403       12.1855071977
  C        37.1226307616       16.1556463807       11.4439158314
  C        38.1287748495       17.1144898974       11.6740151365
  C        37.9273184716       18.0661205793       12.6919790547
  C        36.7460392113       18.0843790863       13.4302275542
  C        39.3802275404       17.1237410587       10.8822663140
  C        39.3702157844       17.1315179043        9.4604010639
  C        38.1602713253       17.2504576053        8.7066054972
  C        20.3147004403       17.9320557280        8.7415452882
  C        20.3240778684       17.9472272191       11.5535203806
  C        34.4350127885       17.2407208107        2.1879124802
  C        35.7337381889       17.1471335453        2.9176578895
  C        35.9408589099       16.1675050538        3.9000474655
  C        37.1317060634       16.1384293780        4.6222465150
  C        38.1445127859       17.0876954829        4.3818924379
  C        37.9427767017       18.0414296922        3.3667552110
  C        36.7513089961       18.0755851758        2.6482646748
  C        39.3960424307       17.1031933351        5.1720720602
  C        39.3786534525       17.1218157884        6.5934019524
  C        38.1641699986       17.2447571182        7.3399224869
  C        35.1531704620       26.6351625886        7.2929959949
  C        35.1798759453       26.6465620875        4.4839243744
  C        26.5750109924       17.8238721594        2.3248144889
  C        25.2624122172       17.8642539941        3.0348495117
  C        25.0021108183       18.8610381277        3.9870338174
  C        23.7831336557       18.8859018738        4.6585107728
  C        22.7957698980       17.9141194697        4.4005782995
  C        23.0515876149       16.9409674670        3.4177776537
  C        24.2714239005       16.9138404181        2.7449958958
  C        21.5289027452       17.8988053244        5.1669815394
  C        21.5457445045       17.8854893322        6.5880526672
  C        22.7593845558       17.7532649157        7.3343628726
  C        14.0465524011       17.8317250579        2.2891140646
  C        15.3536854980       17.8948018147        3.0051007203
  C        15.6159912230       18.9074976279        3.9406135647
  C        16.8275088519       18.9312719085        4.6279846295
  C        17.8081970618       17.9448064818        4.4012693453
  C        17.5519521591       16.9581613163        3.4309113701
  C        16.3402663877       16.9301238700        2.7446840325
  C        19.0742791564       17.9236713588        5.1722104519
  C        19.0651298552       17.9202584344        6.5940402183
  C        17.8534655537       17.8304869718        7.3490427538
  C        46.8018103932       17.2163192388        2.1613580366
  C        45.5067219577       17.1473575169        2.9000287241
  C        45.2993449414       16.1663802203        3.8822234883
  C        44.1143731015       16.1419877399        4.6133581149
  C        43.1054307640       17.0982451759        4.3850091271
  C        43.3088772184       18.0571032213        3.3740525346
  C        44.4949393766       18.0855954164        2.6440296238
  C        41.8524679357       17.1069818492        5.1759730801
  C        41.8629387279       17.1142546194        6.5982468231
  C        43.0742731585       17.2155343219        7.3524011834
  C        20.3082786960       17.9214613117        7.3074217484
  C        20.3002945931       17.8970032783        4.4946806171
  C        46.7860999493       17.2333320512       13.8804936467
  C        45.4857995243       17.1318291546       13.1578238028
  C        45.2701335252       16.1370092759       12.1920036100
  C        44.0838292867       16.1118220681       11.4625796708
  C        43.0831913820       17.0786161515       11.6814841567
  C        43.2904638770       18.0449611605       12.6836284573
  C        44.4777546497       18.0763406157       13.4083161514
  C        41.8348788027       17.0984064850       10.8871367362
  C        41.8541695841       17.1085132376        9.4658063364
  C        43.0702444405       17.2101526370        8.7192257991
  C        46.1531883598       26.6372562479        8.7211605176
  C        46.1622167633       26.6561061891       11.5307968356
  C        14.0414836501       17.8301598378       13.7012631786
  C        15.3560660755       17.9030826191       13.0020733286
  C        15.6225514499       18.9233411497       12.0768393219
  C        16.8463491791       18.9633526034       11.4133883421
  C        17.8293280713       17.9822082406       11.6506531528
  C        17.5687761577       16.9888567497       12.6119210543
  C        16.3471875848       16.9483661444       13.2790948601
  C        19.0954588151       17.9625215718       10.8819005636
  C        19.0763352044       17.9394239520        9.4607601310
  C        17.8591009629       17.8386275745        8.7152371228
  C        28.8042186047       14.0960774042        2.3267084148
  C        28.1841290164       12.9360896119        3.0339172343
  C        28.9088865078       12.1981387332        3.9820927374
  C        28.3094671832       11.1304020670        4.6464655316
  C        26.9702003482       10.7743554208        4.3872643356
  C        26.2643860519       11.4972688109        3.4083976800
  C        26.8614631818       12.5655733568        2.7426363993
  C        26.3060435756        9.6896614445        5.1489555589
  C        26.2957956863        9.7093632871        6.5701437234
  C        26.8009917923       10.8192224341        7.3187979160
  C        32.1790388240       21.2353394874        2.1464932862
  C        32.7798243543       22.3929393817        2.8729615227
  C        32.0317565862       23.0725490472        3.8465326901
  C        32.6031303199       24.1122025763        4.5737707149
  C        33.9379847986       24.4998890708        4.3480778957
  C        34.6692761635       23.8375827294        3.3441911592
  C        34.1002780471       22.7924551027        2.6188740811
  C        34.5667502806       25.5771946480        5.1459363543
  C        34.5593454938       25.5509276942        6.5676532420
  C        34.0475608506       24.4386576376        7.3080486998
  C        25.6877640186        8.6280059400        7.2861470307
  C        25.6731537854        8.6374017383        4.4733942574
  C        32.1067068374       21.2350014916       13.8777977337
  C        32.6990990939       22.3889399343       13.1419194620
  C        31.9643264055       23.0539560895       12.1477242268
  C        32.5485475228       24.0790306345       11.4080533921
  C        33.8809303610       24.4697806418       11.6446231707
  C        34.5977695183       23.8208124089       12.6684395033
  C        34.0188175732       22.7894282500       13.4031494403
  C        34.5234805411       25.5464835125       10.8563734198
  C        34.5353577568       25.5356136025        9.4343338567
  C        34.0341718460       24.4320082307        8.6747652088
  C        40.6140173545       17.1041604957        8.7468055327
  C        40.6063926651       17.1236198430       11.5569611831
  C        28.7130010296       14.1003220751       13.7623137129
  C        28.1051794710       12.9545854638       13.0248215207
  C        28.8516841976       12.2288758644       12.0834847891
  C        28.2710507733       11.1654418972       11.3962332392
  C        26.9289225040       10.8009534349       11.6252445139
  C        26.1986001138       11.5152851474       12.5930605716
  C        26.7773948088       12.5785266497       13.2833094289
  C        26.2904377129        9.7047827310       10.8567425305
  C        26.2893740260        9.7169410054        9.4354659801
  C        26.7962253919       10.8237601941        8.6843311311
  C        18.1353872152        3.1809444756        2.3222339711
  C        17.4059576702        4.2781316429        3.0207589524
  C        16.3905360270        3.9996817417        3.9485876030
  C        15.7427332607        5.0396186175        4.6120710584
  C        16.0942606676        6.3834049459        4.3721347766
  C        17.0832383662        6.6529978907        3.4079575388
  C        17.7323818876        5.6157089457        2.7428907133
  C        15.4699768361        7.4910851019        5.1352067512
  C        15.4852673608        7.4903658334        6.5569203418
  C        16.1867934282        6.4967488635        7.3101149703
  C        42.9459636344       31.8595431364        2.0780105538
  C        43.6463086783       30.7719320481        2.8219886828
  C        44.5919057504       31.0932444989        3.8080060512
  C        45.1975675451       30.0876708651        4.5556613383
  C        44.8710556111       28.7346202632        4.3408221519
  C        43.9451600215       28.4203067931        3.3276679744
  C        43.3363679302       29.4254593796        2.5796352620
  C        45.4886181098       27.6553118344        5.1439989863
  C        45.4927417868       27.6809499823        6.5656836867
  C        44.8055865658       28.6889640022        7.3122884729
  C        14.8564190637        8.5629220603        7.2692908740
  C        14.8747535472        8.5629009346        4.4566241948
  C        42.9464703027       31.9616099820       13.8038977979
  C        43.6916777250       30.8855413821       13.0903878799
  C        44.6561956631       31.1914278519       12.1179974139
  C        45.2776652630       30.1718159288       11.4002725119
  C        44.9539235474       28.8214959582       11.6379771672
  C        44.0205132243       28.5238666565       12.6488360811
  C        43.3922956994       29.5406427126       13.3610224137
  C        45.5629059373       27.7240847075       10.8527259531
  C        45.5331945366       27.7174097112        9.4314325711
  C        44.8268205773       28.7075995881        8.6784734954
  C        35.1429931069       26.6259643452        8.7276981340
  C        35.1365288275       26.6045953298       11.5375013719
  C        18.1484150684        3.2469144516       13.7014775282
  C        17.4297598008        4.3437257967       12.9923207883
  C        16.4147577050        4.0524472377       12.0685113668
  C        15.7664588171        5.0830779009       11.3931204211
  C        16.1209053192        6.4283511241       11.6160373701
  C        17.1120106983        6.7117376883       12.5735932144
  C        17.7596511961        5.6828293820       13.2533769402
  C        15.4904715599        7.5240471273       10.8435630983
  C        15.4963548621        7.5073492082        9.4224271146
  C        16.1930342774        6.5055938903        8.6757200124
  H        10.6723296130       12.4655472310       11.8997136726
  H        11.6945898371       10.5506814413       10.6578559674
  H        15.3920352372       11.1693356513       12.7663763891
  H        14.3515384501       13.0721371907       14.0115321296
  H        13.3764633890       11.6312660961        9.1961680003
  H        50.3226111014       22.7485444465       11.9819275282
  H        49.3194834288       24.6229520837       10.6758358184
  H        45.6419623704       24.1612704080       12.8586667701
  H        46.6629355870       22.2903759798       14.1670523102
  H        47.6298844658       23.5760100240        9.2411172972
  H        14.8720864601        8.5883806162       12.6034383725
  H        50.2870693632       22.7027365225        4.0653409265
  H        49.2691549910       24.5756340509        5.3653866017
  H        45.6103961602       24.1092106369        3.1512588400
  H        46.6525092182       22.2538588555        1.8369501825
  H        47.6079423127       23.5519918341        6.8019711491
  H        40.6269702032       17.0769524584        3.4145840166
  H        48.6871032459       14.0951789054       15.7949394400
  H        10.6811510268       12.4663443545        4.0980620442
  H        11.6894011537       10.5243310394        5.3017382015
  H        15.3937583592       11.1594233148        3.2113074689
  H        14.3652780817       13.0878666516        1.9960764074
  H        13.3760534418       11.6221663596        6.7581293652
  H        47.9301433515       14.2189077777        1.7160510574
  H        47.7800279788       14.3739746153       14.4903053800
  H        49.0827830326       18.5519848697        2.8723346602
  H        10.4159391884       14.1343454564        0.0039208319
  H        24.4819233851        3.0376059789       11.9011382662
  H        25.6117303417        4.8969091691       10.6686304537
  H        23.2158064723        7.7586810145       12.8063896213
  H        22.1057037041        5.8897432788       14.0417466190
  H        23.8112427750        5.7958887934        9.2261545347
  H        36.3818800888       32.1852518761       11.9564620841
  H        35.2647399717       30.3578049177       10.6734666014
  H        37.5304327545       27.4393908542       12.8760611052
  H        38.6275548623       29.2793566602       14.1678212894
  H        37.0373605368       29.4450126845        9.2582292744
  H        25.7030183424        8.6288178007       12.6210194342
  H        36.4527761089       32.2358163415        4.1158096296
  H        35.3426505545       30.4143799135        5.4074002757
  H        37.5274242432       27.4843188367        3.1381378013
  H        38.6124568871       29.3173432896        1.8340770845
  H        37.0512855484       29.4622346023        6.8200421596
  H        46.1092889684       26.5876044582        3.3906843107
  H        44.6681133087       35.1161794149       15.8088566521
  H        24.4600906834        3.0539297348        4.0686328094
  H        25.5939573215        4.9024728368        5.3044194155
  H        23.1498986717        7.7735848034        3.2358763061
  H        22.0301686572        5.9136684484        1.9975032789
  H        23.7999930763        5.7996165534        6.7875851322
  H        44.9531288303       34.3899829332        1.7001445681
  H        44.9012019965       34.2067022729       14.4854644200
  H        40.6655532848       33.2087360260        2.8580712776
  H        23.1502089783        1.9583922553        0.0083960311
  H        25.8404596861       19.5634506404       11.8331092455
  H        23.6652409622       19.6398569427       10.6011824518
  H        22.2590231568       16.2823440461       12.8935588462
  H        24.4271978449       16.2382698993       14.1375819282
  H        23.7019025875       17.6286426410        9.2336295175
  H        35.1628445724       15.4322204793       12.0066465750
  H        37.2808532738       15.3941297678       10.6832963991
  H        38.6960473761       18.8141988119       12.8745869135
  H        36.5739393928       18.8350576878       14.1982235464
  H        37.2236673704       17.3789963157        9.2416089563
  H        20.3264545061       17.9931006558       12.6410939627
  H        35.1514594719       15.4452901159        4.0951034176
  H        37.2906054457       15.3749856418        5.3807297074
  H        38.7172357120       18.7813295594        3.1754747820
  H        36.5756425394       18.8300905712        1.8853374048
  H        37.2302839328       17.3678950225        6.7990080162
  H        35.1505091826       26.6707421782        3.3962203087
  H        28.4964186717       21.0935843166       15.8725075254
  H        25.7676770276       19.6085388018        4.1821287359
  H        23.5800915827       19.6631443936        5.3920689490
  H        22.2971219671       16.1839754203        3.2135983957
  H        24.4852023708       16.1523007882        1.9988505188
  H        23.6911504610       17.6134845062        6.7945020687
  H        29.0082530039       21.7209608874        1.7501018756
  H        29.1686324276       21.7328150116       14.5411606660
  H        32.0702338852       18.5522307531        2.9170005799
  H        27.3395017807       19.0578871947        0.0133348412
  H        14.8596532485       19.6696387554        4.1142460507
  H        17.0289849993       19.7207550660        5.3488331079
  H        18.3007474132       16.1902549629        3.2478539057
  H        16.1282751264       16.1553796683        2.0117706147
  H        16.9126547568       17.7227658813        6.8172626941
  H        46.0844769886       15.4369829624        4.0671242833
  H        43.9563411034       15.3742934780        5.3676976778
  H        42.5384978231       18.8035254369        3.1916998062
  H        44.6675492233       18.8414450205        1.8813716000
  H        44.0138248172       17.3289907095        6.8191769215
  H        20.2988301615       17.9289021902        3.4065972528
  H        46.0473944198       15.3969784264       12.0154222105
  H        43.9193592927       15.3385653338       10.7153091067
  H        42.5236370954       18.7966561643       12.8588803951
  H        44.6581277480       18.8408943996       14.1599949320
  H        44.0067776853       17.3186558908        9.2586212853
  H        46.1990846077       26.6826529121       12.6182420355
  H        52.7413490240       21.0627198953        0.1997485257
  H        14.8611087316       19.6786825914       11.8957875957
  H        17.0544341227       19.7577486648       10.6998639801
  H        18.3207708096       16.2254427316       12.8004046768
  H        16.1296041248       16.1701818657       14.0066146431
  H        16.9225051964       17.7370302887        9.2552966759
  H        52.3229305141       21.6737789709       14.2893703469
  H        52.0137485585       21.7026487226        1.5006512539
  H        49.0679547266       18.6081580151       13.1988045246
  H        13.2476388615       19.0162685404       15.9709364944
  H        29.9419414279       12.4739858016        4.1817032900
  H        28.8761133204       10.5562611275        5.3764228323
  H        25.2286627435       11.2354915733        3.2016721968
  H        26.3133898329       13.1416834739        2.0009696214
  H        27.1664995232       11.6881293597        6.7798808026
  H        31.0061760040       22.7605019958        4.0280664773
  H        32.0178630785       24.6385996062        5.3245561554
  H        35.7026510102       24.1274815614        3.1652106460
  H        34.6698146713       22.2565354719        1.8631118663
  H        33.6874565843       23.5701881515        6.7639390836
  H        25.7008025266        8.6218710662        3.3852437958
  H        30.9375998760       22.7491258502       11.9585594280
  H        31.9726209690       24.5936348252       10.6420383891
  H        35.6287401980       24.1128120042       12.8573495394
  H        34.5783028220       22.2652438396       14.1744636858
  H        33.6633603581       23.5583077050        9.2033372481
  H        40.6038417925       17.0891526576       12.6447518804
  H        32.5253968838       14.1352493253        0.2553548550
  H        29.8908808202       12.5021054846       11.9133582510
  H        28.8568379271       10.5977531046       10.6764073960
  H        25.1597783411       11.2475656784       12.7750393400
  H        26.2111298782       13.1446803585       14.0191780330
  H        27.1572072399       11.6964273039        9.2205558333
  H        33.2802642409       14.1570779923       14.4014368990
  H        33.4032041170       14.4228435104        1.6097639658
  H        32.1620421214       18.5413122544       13.1085224074
  H        30.2332443026       14.1904390159        0.0012170224
  H        16.1187162933        2.9631525869        4.1352056781
  H        14.9534692545        4.8201497181        5.3279102918
  H        17.3652653432        7.6859225584        3.2145142650
  H        18.5139971630        5.8184579945        2.0146232280
  H        16.7532975475        5.7393497008        6.7766502884
  H        44.8282445443       32.1403154490        3.9821762968
  H        45.9374729565       30.3413624796        5.3115881100
  H        43.6823658445       27.3782533383        3.1576098456
  H        42.5996596987       29.1901390192        1.8150549105
  H        44.2301820913       29.4366820503        6.7739677679
  H        14.8509757666        8.5461799370        3.3684048397
  H        44.8997283907       32.2341010945       11.9264953304
  H        46.0245185794       30.4129957364       10.6469684324
  H        43.7635933654       27.4841400979       12.8404703200
  H        42.6458701259       29.3178526250       14.1195413883
  H        44.2682264922       29.4704354224        9.2130409379
  H        35.0966775715       26.6184212687       12.6250423346
  H        36.6049730934       35.1339757714        0.1858701901
  H        16.1437882333        3.0128667656       11.8986191466
  H        14.9742676098        4.8562130503       10.6828902103
  H        17.3952671500        7.7472330152       12.7507283934
  H        18.5422452423        5.8933153617       13.9784282581
  H        16.7644334799        5.7553175513        9.2141420405
  H        36.2780233458       34.4828423530       14.2680808757
  H        36.3804550100       34.2093713639        1.5051076539
  H        40.5806619316       33.2027135804       13.1485421269
  H        17.4708270509        1.9473974421       15.9690419982
  H        29.1381391885       19.4252464148        4.4361936512
  H        30.2724083355       19.8677085931       11.6775503907
  H        31.7627755951       16.1885053072       11.0220192406
  H        31.3105159624       15.6718260958        4.4653511100
  H        28.2949113847       17.8140307465        6.5920515168
  H        29.3318966173       15.5436344072        6.3585168385
  H        31.4253600818       18.4842502270        9.6391018504
  H        32.9847402146       16.4888072888        9.2703579332
  H        28.6307923239       16.0464048155        9.5277129684
  H        18.8531823659        0.8690736671        4.3402392405
  H        40.5276980476       35.2291528483       11.9469326900
  H        42.3243437484       34.4190880595       11.5855072443
  H        22.0880980759        0.6919471425        4.3568061692
  H        11.5969252474       18.7126810262        4.3876845500
  H        52.2649903208       18.4315656529       11.6726107354
  H        49.2551432284       16.4768487784       11.5793686382
  H        10.1503184387       15.7983600952        4.2977604928
  H        50.8502702095       17.6926076709       11.9489232978
  H        10.0461194946       17.3948108265        4.0569751727
  H        20.2143855088        0.0023632259        4.0471683038
  H        39.1834581478       36.1243887405       11.6812447049
 Ni        29.4219685260       17.9645194922       10.6572084911
 Ni        30.9880303924       16.4856816769        7.9148686847
 Ni        30.0135599639       18.8405248375        7.8281898074
 Ni        29.9705159135       17.4050574037        4.9232070363
  O        10.6499328391       14.3651278891       13.4806656195
  O        12.6131443542       14.6574414478       14.5787833962
  O        49.1477746511       16.8459026836       15.9847270533
  O        50.3501089566       20.9361849505       13.6430543894
  O        48.3484667056       20.5933094748       14.6608726250
  O        11.0513220294       17.0539574193       14.4955911468
  O        50.3208593267       20.8817002346        2.4119966238
  O        48.3466757010       20.5867367781        1.3322441238
  O        49.5434077616       18.2484035563        2.0734317727
  O        12.3590688854       18.6247772414        0.0047793491
  O        48.6931935723       14.1486021785       14.7461892419
  O         8.2098244678       14.2105079018        1.3276936940
  O        10.7353410707       14.5067437839        2.6694869178
  O        12.5717507480       14.5826992982        1.3336036076
  O        22.8454124363        2.0451325446       13.4810008870
  O        21.6062777978        3.5933111541       14.5830773201
  O        42.0582281795       34.1374677917       15.9738951442
  O        37.9820254241       33.1383278237       13.5675051848
  O        39.2185939969       31.5766574087       14.6619710390
  O        20.3084588008        1.0396407793       14.4967542043
  O        38.0244539481       33.1852074658        2.4204301009
  O        39.2192972887       31.5838329792        1.3313837372
  O        40.6523340650       33.7693494126        2.0653829100
  O        18.2556423299        1.3763921630        0.0018496967
  O        44.6221808673       35.1006176554       14.7536366368
  O        24.2053497656        0.0000961170        1.3259696410
  O        22.7533063597        2.0595294777        2.5891923754
  O        21.6238490359        3.5957811263        1.3462821043
  O        27.4578473704       18.6944507736       13.4820207106
  O        26.6931759547       16.9135936430       14.6579143651
  O        30.6370337002       19.3521032097       -0.0068288984
  O        33.5883048913       16.2804277985       13.6556964274
  O        34.2750549435       18.1707038084       14.7271290311
  O        29.5718389322       17.0581563774       14.4953957513
  O        33.5525808448       16.3383450212        2.4133057543
  O        34.2963234278       18.2404424636        1.4056677177
  O        31.6469016055       18.3165378050        2.0741444404
  O        30.3254341058       15.1573574536        0.0106892595
  O        28.5491040233       21.0356374588       14.8248491927
  O        28.5108471763       20.9615304272        1.4013687441
  O        27.4597507066       18.6780694910        2.6552757243
  O        26.6964885086       16.9255777933        1.4137303654
  O        13.1476144649       18.6934006253        2.5914906509
  O        13.9180425017       16.9158734201        1.4089069529
  O        50.5960467918       19.3502748926        0.0258784144
  O        47.6819561591       16.3273057013        2.4225994366
  O        46.9504434343       18.1757722740        1.3302755003
  O        11.0692802438       17.0157617612        1.4946111628
  O        47.6756292242       16.3359230765       13.6475449589
  O        46.9261940414       18.2358930485       14.6588223637
  O        49.5685458444       18.3177735950       13.9772358824
  O        10.3185514885       15.1001788422        0.0022210226
  O        52.6707636277       21.0279616793        1.2469218048
  O        12.1467908682       20.8913875829       14.6682845464
  O        13.1050353198       18.6144162430       13.3209931840
  O        13.9560728521       16.9871087552       14.6596619715
  O        29.9922879445       14.4410594887        2.6547866953
  O        28.0882396394       14.6518904881        1.4225617554
  O        32.1400102835       16.8539491941        0.0123950519
  O        30.9633153271       20.9522011211        2.4017736896
  O        32.9458485682       20.5980342199        1.3356276168
  O        29.5622148703       17.0767736684        1.4982684178
  O        30.8785596832       20.9499767992       13.6523551016
  O        32.8782804979       20.5858719697       14.6597585610
  O        31.6758972949       18.2414987459       13.8927826004
  O        28.2313591016       18.6750605470        0.0125232276
  O        32.4934159148       14.2118894858        1.3281304482
  O        32.4025883524       14.2116402270       14.8149060170
  O        29.8715570219       14.5063778239       13.3994543270
  O        28.0384553867       14.5839046874       14.7321012803
  O        17.8892582244        1.9665868621        2.6678976132
  O        18.9562420377        3.5271068821        1.4130300595
  O        39.1686696089       34.1388815355        0.0023686358
  O        43.2801947658       33.0590669159        2.3367741983
  O        42.0345926498       31.5065274104        1.2467414282
  O        20.3176271396        1.0366919798        1.4850406903
  O        43.2760750809       33.1826813548       13.5698533057
  O        42.0053048581       31.5841741100       14.5779131566
  O        40.5791355521       33.7750750376       13.9308949807
  O        22.3673998669        1.3847438915        0.0028440991
  O        36.6727763686       35.0997838909        1.2384583746
  O        16.4455048506        0.0643298916       14.6632207354
  O        17.9363829810        2.0432835168       13.3213176162
  O        18.9191098515        3.5931208882       14.6607262692
  O        29.6842910511       19.1913868339       12.0621344127
  O        29.8273629621       18.9748449867        3.9085495769
  O        31.5119058270       15.7593272211       11.9157844714
  O        31.2596320941       16.4796684690        3.9159404217
  O        32.0613766321       16.7049546599        9.4841733888
  O        29.2301537823       16.7610621773        9.2449836054
  O        30.1965363320       15.9747722322        6.2386580586
  O        31.6012077450       18.0957394641        7.0800633686
  O        30.6680329294       19.1187502925        9.5650076831
  O        28.9855361473       18.4099949452        6.2473038395
  O        39.4567311829       35.2438260899       11.9968477399
  O        19.1412741380        0.0046104192        3.9956461242
  O        41.9696714315       35.1727771321       12.0822104120
  O        21.6914141720       -0.0691662528        3.9008785607
  O        51.3648902468       18.6144103969       12.0001769610
  O        10.7511248820       18.7470932445        3.9101255339
  O        50.0795640229       16.4126949540       12.0866337488
  O         9.5243734355       16.4831710562        3.9962760390
 Zr         9.2973536257       16.0528646569       14.1773133338
 Zr        49.8367469569       16.0069685950        1.7516428086
 Zr        22.0732288505        0.0299629976       14.1839978138
 Zr        42.4607423243       35.1535554035        1.8060195598
 Zr        29.5620824932       19.0829334672       14.2021328552
 Zr        29.5567479668       19.1852620914        1.7866239133
 Zr        11.0383243032       19.0521401873        1.8330739114
 Zr        11.0440872007       19.1550491374       14.2459054578
 Zr        31.3359042763       16.1047286753        1.8006889583
 Zr        31.4141851466       16.0100461983       14.2490781042
 Zr        18.6009283683       -0.0016557999        1.7685006133
 Zr        18.5061759389       -0.0079057410       14.2087071424
 Zr        12.3022642421       16.3236316827       15.9852317224
 Zr        48.6168962749       18.8330992629        0.0155976593
 Zr        20.3149963703        2.4733322050       15.9849855493
 Zr        40.6433245749       32.6868758160       15.9733354805
 Zr        28.3202395348       16.3535700393        0.0352207409
 Zr        32.6189902248       18.8508915883        0.0345282202
  H        32.3463912103       18.4180413894        7.6262437143
  H        30.6815888543       15.2714777186       11.7479156775
  H        28.5595838160       17.1442683880       11.4893939017
