     574
 i =      164, E =     -4778.8820912229
  C        11.8588664811       14.0535993662       13.7364414654
  C        12.4564138617       12.8907015506       13.0180758110
  C        11.7046132077       12.1715330142       12.0766945508
  C        12.2809911599       11.1093268882       11.3843468445
  C        13.6216711843       10.7398135103       11.6118612339
  C        14.3550136736       11.4436893665       12.5849591998
  C        13.7821140218       12.5086844087       13.2764331585
  C        14.2611674465        9.6491009028       10.8385049149
  C        14.2564842238        9.6569950001        9.4168108604
  C        13.7433733514       10.7591593745        8.6629279897
  C        49.1269537319       21.2331460985       13.8745445794
  C        48.5502399500       22.4011739849       13.1474846484
  C        49.3002541033       23.0684847463       12.1664855105
  C        48.7333245914       24.1076504078       11.4333061019
  C        47.4027915241       24.5092790006       11.6619555493
  C        46.6718436352       23.8604211014       12.6754770252
  C        47.2343129771       22.8155121476       13.4048052376
  C        46.7725037929       25.5869664223       10.8647115572
  C        46.7614389970       25.5573691089        9.4429516819
  C        47.2613971636       24.4422958326        8.6994447670
  C        14.8603638795        8.5706221215        8.7035557136
  C        14.8918401318        8.5971123794       11.5151650615
  C        49.1133589811       21.2034912708        2.1505223536
  C        48.5279925993       22.3648882515        2.8777193762
  C        49.2672312247       23.0256463789        3.8705827741
  C        48.6909021002       24.0602248666        4.6020274142
  C        47.3604693707       24.4569287118        4.3638218291
  C        46.6400256259       23.8119867753        3.3403470747
  C        47.2135965962       22.7760651953        2.6085996786
  C        46.7220035511       25.5319057300        5.1548303330
  C        46.7336599696       25.5282320206        6.5765328114
  C        47.2491228444       24.4290176566        7.3328941117
  C        40.6362817295       17.1514315657        7.3270733766
  C        40.6530573086       17.1814123626        4.5184216531
  C        11.8830318466       14.0865926013        2.2905859171
  C        12.4724375703       12.9108608241        2.9949350003
  C        11.7148308245       12.1774386623        3.9207847282
  C        12.2814458791       11.0949950818        4.5892079132
  C        13.6203866781       10.7215666344        4.3576447713
  C        14.3585101084       11.4374228994        3.3971878293
  C        13.7930531488       12.5185864067        2.7244997924
  C        14.2539289654        9.6247211749        5.1279871993
  C        14.2526843817        9.6446736149        6.5498206294
  C        13.7428407557       10.7536423002        7.2968835993
  C        22.5110945866        3.2450200167       13.7474251733
  C        23.2233653992        4.3515207029       13.0466373440
  C        24.2206178843        4.0734623759       12.1001934615
  C        24.8449705320        5.1142348726       11.4173790321
  C        24.4876794582        6.4553848387       11.6607254595
  C        23.5185394135        6.7250524763       12.6441756952
  C        22.8897145179        5.6860907369       13.3254235945
  C        25.0904577918        7.5630713175       10.8841854462
  C        25.0637254392        7.5544692863        9.4624985015
  C        24.3648483703        6.5527171447        8.7163505151
  C        38.3046293570       31.9301041131       13.8433101909
  C        37.5803073336       30.8393588917       13.1317417451
  C        36.6226239464       31.1399820668       12.1514049870
  C        36.0119237469       30.1171523674       11.4313934685
  C        36.3447381942       28.7696390059       11.6710696190
  C        37.2728793152       28.4764319445       12.6876533446
  C        37.8876649438       29.4978320729       13.4062848923
  C        35.7467214028       27.6756289263       10.8749753174
  C        35.7751679318       27.6901199756        9.4539163575
  C        36.4795139198       28.6925795567        8.7153720716
  C        25.6844512678        8.6250950255        8.7416584599
  C        25.6834357428        8.6412339536       11.5540993358
  C        38.3286729782       31.9621050687        2.1606803002
  C        37.6074332694       30.8877358866        2.9008316332
  C        36.6802527695       31.1940126932        3.9085549981
  C        36.0724300311       30.1735431706        4.6371957439
  C        36.3777354495       28.8217371677        4.3814034697
  C        37.2815823249       28.5254480495        3.3429116916
  C        37.8916039965       29.5423446567        2.6156454957
  C        35.7738673144       27.7210234119        5.1661614486
  C        35.7893859859       27.7132894313        6.5879112820
  C        36.4861430174       28.7037839780        7.3489297992
  C        46.1356154814       26.6208387019        7.2866836362
  C        46.0880396256       26.5802658140        4.4787905690
  C        22.4606144588        3.2554190270        2.2619480597
  C        23.1546464188        4.3645447886        2.9838347989
  C        24.1589046707        4.0793245212        3.9224421324
  C        24.7864166046        5.1102018522        4.6176275264
  C        24.4293800811        6.4553102959        4.3963409931
  C        23.4484236309        6.7339075395        3.4259542615
  C        22.8163735645        5.7032965067        2.7312714381
  C        25.0581750427        7.5542115151        5.1706126652
  C        25.0477556588        7.5492973061        6.5932289542
  C        24.3552840685        6.5515143703        7.3496433952
  C        26.6234379517       17.8549209524       13.7775336227
  C        25.3170039339       17.9007564574       13.0530851284
  C        25.0744963986       18.8786715889       12.0755687437
  C        23.8601468039       18.9029041259       11.3918334351
  C        22.8548936221       17.9505491335       11.6589451011
  C        23.0968089880       16.9944156082       12.6636926287
  C        24.3111059378       16.9663709418       13.3479790374
  C        21.5813689313       17.9354469363       10.8949366654
  C        21.5798190329       17.9048443794        9.4722553941
  C        22.7839106247       17.7710635296        8.7110753336
  C        34.4769975738       17.2556725582       13.9547849172
  C        35.7632961918       17.1941211502       13.2025880161
  C        35.9574475617       16.2127769047       12.2182533010
  C        37.1285748536       16.1952180561       11.4658581081
  C        38.1362849981       17.1546644382       11.6827449510
  C        37.9446811139       18.1162645615       12.6926991306
  C        36.7697022224       18.1416844153       13.4396216076
  C        39.3866147032       17.1539610551       10.8911652093
  C        39.3803165259       17.1684939939        9.4701718482
  C        38.1725168434       17.2933992488        8.7140704415
  C        20.3329018526       17.9236667352        8.7640340149
  C        20.3559975900       17.9435090391       11.5770999569
  C        34.4775730777       17.2483069510        2.1838366440
  C        35.7794073378       17.1802666224        2.9093874438
  C        35.9931740778       16.2000121078        3.8897144110
  C        37.1778099383       16.1863679581        4.6201966173
  C        38.1762361278       17.1520751280        4.3885593352
  C        37.9684332189       18.1080000482        3.3770994587
  C        36.7813982642       18.1269721747        2.6498071693
  C        39.4226860058       17.1714486271        5.1838952939
  C        39.3990775421       17.1799507886        6.6047242813
  C        38.1815793168       17.2974698758        7.3472771525
  C        35.1607293711       26.6340559119        7.2932760304
  C        35.1820599620       26.6505304111        4.4844339944
  C        26.5720820390       17.8242570918        2.3306497367
  C        25.2571550350       17.8686084308        3.0374328564
  C        24.9969818121       18.8662510339        3.9891631902
  C        23.7788817507       18.8901777319        4.6628354699
  C        22.7921851130       17.9162502166        4.4089568186
  C        23.0472739621       16.9437662885        3.4251325725
  C        24.2658728097       16.9178053451        2.7496224176
  C        21.5285683424       17.8957776289        5.1818439212
  C        21.5526897391       17.8829280183        6.6033454500
  C        22.7706597522       17.7606764323        7.3449319211
  C        14.0468471036       17.8284308751        2.2945597489
  C        15.3508471885       17.8842114152        3.0206305251
  C        15.6075255630       18.8855502180        3.9702908875
  C        16.8162922125       18.9047787349        4.6637120081
  C        17.8029231988       17.9254796949        4.4298857823
  C        17.5509307655       16.9484838248        3.4481125900
  C        16.3416810958       16.9245826310        2.7562839975
  C        19.0722386718       17.9066094852        5.1986773030
  C        19.0715273515       17.9025976610        6.6212715697
  C        17.8648978489       17.8058939318        7.3833481650
  C        46.8065604873       17.2201414500        2.1643797151
  C        45.5181663812       17.1638175326        2.9118301409
  C        45.3103596890       16.1897590086        3.9003585715
  C        44.1297990938       16.1792327523        4.6381448218
  C        43.1287344472       17.1430551067        4.4085294484
  C        43.3338413921       18.0966891648        3.3934981958
  C        44.5149036143       18.1110853953        2.6568020552
  C        41.8767355223       17.1617852751        5.1971761910
  C        41.8829787179       17.1612819680        6.6186168710
  C        43.0926466040       17.2515415633        7.3766585858
  C        20.3186533212       17.9114032106        7.3290662941
  C        20.2961230939       17.8874422146        4.5158008380
  C        46.7876713228       17.2313077415       13.8852831175
  C        45.4851091180       17.1281976681       13.1706758152
  C        45.2661080958       16.1327208298       12.2068201099
  C        44.0789965011       16.1114331378       11.4795239436
  C        43.0835322848       17.0825220909       11.7005635539
  C        43.2923402801       18.0469123648       12.7037462518
  C        44.4805365055       18.0747947727       13.4257620831
  C        41.8390163438       17.1122016401       10.9035398348
  C        41.8639383076       17.1333067675        9.4833075314
  C        43.0837146687       17.2355617445        8.7429886376
  C        46.1533752345       26.6372393750        8.7212302701
  C        46.1625459908       26.6560585126       11.5308688203
  C        14.0465529544       17.8323995407       13.7038473707
  C        15.3683676571       17.9080377683       13.0145883412
  C        15.6415313550       18.9225271083       12.0847778821
  C        16.8710522465       18.9605213241       11.4307002777
  C        17.8556870507       17.9832770322       11.6803531428
  C        17.5895721465       16.9983058279       12.6489698572
  C        16.3620599268       16.9596739137       13.3064932293
  C        19.1230740987       17.9572212953       10.9108721848
  C        19.0980670545       17.9275708843        9.4893604411
  C        17.8779294407       17.8171596244        8.7493768146
  C        28.8099017289       14.0939017955        2.3947015706
  C        28.1944882445       12.9209823454        3.0827381595
  C        28.9153979420       12.1799509206        4.0307646353
  C        28.3141283098       11.1052393981        4.6813080659
  C        26.9781726434       10.7481441839        4.4077366872
  C        26.2791139246       11.4699310196        3.4238434296
  C        26.8780987126       12.5447166820        2.7716728809
  C        26.3074637868        9.6684761411        5.1677049716
  C        26.2906929650        9.6968303823        6.5884253254
  C        26.7910430999       10.8116633425        7.3332254501
  C        32.1791278994       21.2416475985        2.1466359266
  C        32.7785134046       22.4036486480        2.8669532175
  C        32.0316164392       23.0803199346        3.8435795851
  C        32.6042176043       24.1176988738        4.5730567106
  C        33.9387564890       24.5059028904        4.3459506555
  C        34.6681645414       23.8473386460        3.3382401843
  C        34.0981404488       22.8042794888        2.6107812325
  C        34.5694815544       25.5804862654        5.1455424896
  C        34.5649241891       25.5514799052        6.5671209782
  C        34.0530990104       24.4387344515        7.3067534914
  C        25.6812941828        8.6189332668        7.3073019043
  C        25.6738681798        8.6160751698        4.4942948834
  C        32.1123612921       21.2387643140       13.8863624572
  C        32.7073830947       22.3874148213       13.1430211275
  C        31.9713927620       23.0576802350       12.1533689785
  C        32.5577717133       24.0798172209       11.4112154819
  C        33.8928041661       24.4635970909       11.6427743824
  C        34.6117593449       23.8088417877       12.6612459105
  C        34.0310591356       22.7791028953       13.3969402812
  C        34.5349371362       25.5411002920       10.8554897118
  C        34.5453462469       25.5319963632        9.4336824927
  C        34.0417866342       24.4299475981        8.6734419394
  C        40.6262986581       17.1409738717        8.7608293021
  C        40.6096645950       17.1415175239       11.5699323530
  C        28.7162303107       14.1025175134       13.7749967162
  C        28.1074631076       12.9556620289       13.0383572310
  C        28.8505905485       12.2352788119       12.0905803636
  C        28.2700859599       11.1715839630       11.4038338014
  C        26.9312086684       10.8011549753       11.6407817566
  C        26.2046207142       11.5089261181       12.6161936676
  C        26.7834975633       12.5728322839       13.3052471771
  C        26.2924488840        9.7039686331       10.8747513362
  C        26.2851838346        9.7144673183        9.4534298858
  C        26.7864596049       10.8212990726        8.6987834006
  C        18.1353322440        3.1810205772        2.3222868902
  C        17.4059824045        4.2782234822        3.0208340805
  C        16.3904452214        3.9998452617        3.9485559212
  C        15.7427066860        5.0398197066        4.6120412335
  C        16.0944113876        6.3835714600        4.3721737271
  C        17.0835162978        6.6531055242        3.4081163090
  C        17.7326067687        5.6157734973        2.7430642176
  C        15.4701639525        7.4912752892        5.1352463677
  C        15.4854711868        7.4905630638        6.5569584714
  C        16.1869580656        6.4969014137        7.3101340921
  C        42.9459852073       31.8595042934        2.0780330189
  C        43.6463679931       30.7719050794        2.8220001683
  C        44.5918479145       31.0932461696        3.8081201095
  C        45.1975440749       30.0877094574        4.5558003887
  C        44.8711728599       28.7346329094        4.3409006183
  C        43.9453926373       28.4202794871        3.3276459064
  C        43.3365761409       29.4254082594        2.5795991886
  C        45.4887546480       27.6553367651        5.1440855225
  C        45.4928858266       27.6809556028        6.5657753001
  C        44.8057407964       28.6889515306        7.3124156185
  C        14.8565930334        8.5630941437        7.2693390611
  C        14.8750123510        8.5631401305        4.4566738031
  C        42.9464684809       31.9614694941       13.8039089651
  C        43.6917560272       30.8853879354       13.0904964940
  C        44.6562786982       31.1913106345       12.1181265207
  C        45.2778051919       30.1717307816       11.4004092417
  C        44.9541658125       28.8213940051       11.6381432980
  C        44.0208020264       28.5237262223       12.6490373928
  C        43.3925263021       29.5404758088       13.3612160070
  C        45.5631599437       27.7240232220       10.8528435528
  C        45.5333870437       27.7173657848        9.4315472790
  C        44.8270013499       28.7075594267        8.6786023631
  C        35.1522861817       26.6230012056        8.7278181841
  C        35.1467935726       26.5991082302       11.5375352021
  C        18.1484646641        3.2470117336       13.7014651387
  C        17.4298446107        4.3438177101       12.9922614765
  C        16.4147757641        4.0525232884       12.0685370064
  C        15.7664871176        5.0831686538       11.3931617059
  C        16.1210077343        6.4284240851       11.6160300484
  C        17.1121815307        6.7117991364       12.5735106912
  C        17.7598362370        5.6828966485       13.2532878776
  C        15.4905922277        7.5241339018       10.8435750129
  C        15.4964857773        7.5074675276        9.4224449963
  C        16.1931874629        6.5057276021        8.6757387060
  H        10.6723851857       12.4654637174       11.8999231182
  H        11.6946382098       10.5506217468       10.6580305393
  H        15.3921757971       11.1693913152       12.7663871752
  H        14.3517035344       13.0722452626       14.0115162738
  H        13.3763948142       11.6312784777        9.1962747500
  H        50.3229667090       22.7484459749       11.9817507261
  H        49.3198268896       24.6229331054       10.6757517300
  H        45.6423631782       24.1612212421       12.8586721191
  H        46.6633519326       22.2902826908       14.1669438407
  H        47.6300065393       23.5759449668        9.2411236804
  H        14.8721757089        8.5884050074       12.6034722005
  H        50.2873086625       22.7028475479        4.0654282664
  H        49.2693393741       24.5757328617        5.3654630045
  H        45.6106138129       24.1092185143        3.1513098721
  H        46.6527905960       22.2538684334        1.8370500366
  H        47.6079731249       23.5519421949        6.8019726827
  H        40.6583307729       17.1483182080        3.4306452062
  H        48.6871907022       14.0949237516       15.7949446445
  H        10.6812561774       12.4663046514        4.0979299175
  H        11.6895947729       10.5243862427        5.3016852320
  H        15.3940883984       11.1598613424        3.2115889272
  H        14.3655163355       13.0882727359        1.9963101099
  H        13.3760738122       11.6222697744        6.7582230486
  H        47.9302010824       14.2185643730        1.7159931847
  H        47.7801913801       14.3739644860       14.4902903912
  H        49.0844450293       18.5526812703        2.8727285310
  H        10.4163336392       14.1342734202        0.0038005857
  H        24.4841882203        3.0354137885       11.9099219927
  H        25.6185630771        4.8981121782       10.6836997988
  H        23.2349271714        7.7573478836       12.8384534423
  H        22.1192711083        5.8849764078       14.0663647131
  H        23.8050618416        5.7948815916        9.2566874208
  H        36.3819711055       32.1823255969       11.9561193995
  H        35.2683392687       30.3524323901       10.6731256665
  H        37.5365492611       27.4383156243       12.8789320737
  H        38.6301657901       29.2807084145       14.1704231304
  H        37.0460639886       29.4420083913        9.2603684477
  H        25.7167453183        8.6266180520       12.6420234956
  H        36.4571751280       32.2376791448        4.1183929490
  H        35.3483303590       30.4161289898        5.4118288879
  H        37.5286083569       27.4857565722        3.1385886405
  H        38.6125275672       29.3189209509        1.8330594775
  H        37.0588693719       29.4614258920        6.8218874291
  H        46.1094988815       26.5876899817        3.3907556149
  H        44.6681828518       35.1161391109       15.8088224257
  H        24.4381694330        3.0413579335        4.0887115927
  H        25.5687626775        4.8825910113        5.3385414759
  H        23.1616977445        7.7681107815        3.2465214361
  H        22.0430160593        5.9148864722        1.9964856214
  H        23.7875700244        5.7932408608        6.8181534112
  H        44.9535971489       34.3901421685        1.7000932037
  H        44.9014830954       34.2067172640       14.4854679788
  H        40.6658266837       33.2089400060        2.8581976976
  H        23.1503980553        1.9578032021        0.0100107483
  H        25.8523713309       19.6101053934       11.8665901084
  H        23.6758620001       19.6689744605       10.6416224768
  H        22.3334105298       16.2496121229       12.8793828834
  H        24.5072934832       16.2153347454       14.1097019543
  H        23.7240310211       17.6470072937        9.2405568195
  H        35.1725775520       15.4775693419       12.0544388728
  H        37.2812127655       15.4285479936       10.7092519755
  H        38.7166645924       18.8639567677       12.8624373354
  H        36.6023120340       18.8985730687       14.2024569067
  H        37.2342956244       17.4169002690        9.2476584997
  H        20.3630519659       17.9903473567       12.6647023678
  H        35.2114981815       15.4666907971        4.0739449334
  H        37.3448262901       15.4230748711        5.3770586778
  H        38.7340622681       18.8593179978        3.1948943162
  H        36.5975949055       18.8815265818        1.8885636187
  H        37.2500059000       17.4227705183        6.8029063594
  H        35.1505612291       26.6770218310        3.3968583468
  H        28.5075610715       21.0805569219       15.9690174356
  H        25.7621766575       19.6147911545        4.1828046637
  H        23.5764903004       19.6683320098        5.3956609356
  H        22.2938206777       16.1851946583        3.2229960936
  H        24.4789630925       16.1554196060        2.0041042227
  H        23.7006502905       17.6290875884        6.8000259094
  H        29.0010736740       21.7169054514        1.7709877843
  H        29.1496364027       21.7440072884       14.6115101082
  H        32.0951978794       18.5709479555        2.9745585935
  H        27.3731298298       19.0259695831        0.0821636148
  H        14.8493727750       19.6446155392        4.1496576832
  H        17.0113986267       19.6877397914        5.3933992784
  H        18.3021314877       16.1845579608        3.2581811539
  H        16.1360213149       16.1568820049        2.0141223760
  H        16.9219024177       17.6907055353        6.8568653390
  H        46.0908249117       15.4549143154        4.0833178380
  H        43.9677959582       15.4164529396        5.3965347061
  H        42.5683342711       18.8484750088        3.2129592137
  H        44.6911319790       18.8613882004        1.8896654916
  H        44.0341662807       17.3650291827        6.8469379316
  H        20.2895520151       17.9202840519        3.4277537605
  H        46.0418903919       15.3914883041       12.0290225315
  H        43.9101850411       15.3401477248       10.7312092536
  H        42.5272066801       18.8001053091       12.8796846388
  H        44.6655659477       18.8382515997       14.1773071175
  H        44.0183740888       17.3356190173        9.2871653087
  H        46.1994791269       26.6826104911       12.6183111224
  H        52.7413066513       21.0626916533        0.1998341655
  H        14.8803346209       19.6750700024       11.8910067480
  H        17.0813669962       19.7501356396       10.7125021580
  H        18.3410274239       16.2375363775       12.8501064916
  H        16.1417924468       16.1859137441       14.0379154454
  H        16.9446609080       17.7105388645        9.2941017423
  H        52.3228872042       21.6734258377       14.2890148450
  H        52.0134982419       21.7022245257        1.5008217445
  H        49.0682192298       18.6080471469       13.1989940308
  H        13.2480230818       19.0161459284       15.9723909671
  H        29.9448804017       12.4605581594        4.2424372315
  H        28.8745479481       10.5288057723        5.4142344996
  H        25.2467950156       11.2041028708        3.2056691706
  H        26.3364284424       13.1235011720        2.0275542815
  H        27.1537740607       11.6796143602        6.7910560913
  H        31.0063821438       22.7667148126        4.0253933682
  H        32.0203353668       24.6422502838        5.3262561013
  H        35.7010575421       24.1383039033        3.1581541167
  H        34.6663056506       22.2700692870        1.8526957158
  H        33.6901371300       23.5725118880        6.7611241547
  H        25.7059874270        8.5953291675        3.4063791642
  H        30.9406017368       22.7632095228       11.9699702959
  H        31.9807356949       24.5985478603       10.6488090902
  H        35.6450851749       24.0954968161       12.8454805586
  H        34.5911532810       22.2493577007       14.1640743372
  H        33.6695155021       23.5569726571        9.2021568920
  H        40.6031330770       17.1016672805       12.6574625873
  H        32.5237917238       14.1442665938        0.2724635102
  H        29.8875207777       12.5126889451       11.9142911854
  H        28.8535976417       10.6082003236       10.6788135181
  H        25.1685208408       11.2354453597       12.8050268434
  H        26.2205035732       13.1340010596       14.0473750619
  H        27.1446317048       11.6968326352        9.2322641724
  H        33.2809609471       14.1638820905       14.4050916674
  H        33.4090255934       14.4138681801        1.6168106482
  H        32.1583068950       18.5324723123       13.1192956564
  H        30.2331630983       14.1915792837        0.0669897697
  H        16.1185111129        2.9633352266        4.1351130738
  H        14.9533700567        4.8204119090        5.3278177970
  H        17.3657006644        7.6860049110        3.2147692016
  H        18.5143838034        5.8184574550        2.0149505784
  H        16.7534644213        5.7395170747        6.7766484969
  H        44.8281105110       32.1403302595        3.9823170494
  H        45.9373877306       30.3414579512        5.3117685253
  H        43.6827468847       27.3782022342        3.1575050067
  H        42.5999920890       29.1900462802        1.8149113909
  H        44.2303462677       29.4366961078        6.7741222494
  H        14.8512203785        8.5464325808        3.3684532876
  H        44.8997475121       32.2339946916       11.9266106575
  H        46.0246576160       30.4129524895       10.6471191726
  H        43.7640053632       27.4839814290       12.8407337937
  H        42.6461583953       29.3176492894       14.1197799296
  H        44.2684376859       29.4704021007        9.2131902147
  H        35.1069531487       26.6118170166       12.6250828317
  H        36.6049968300       35.1340252438        0.1858034968
  H        16.1437635668        3.0129464485       11.8986986258
  H        14.9742436976        4.8563310292       10.6829821153
  H        17.3955048597        7.7472872571       12.7505799444
  H        18.5425271905        5.8933552786       13.9782446611
  H        16.7645660081        5.7554347244        9.2141580930
  H        36.2780824227       34.4828870382       14.2679745729
  H        36.3803500995       34.2094549953        1.5050220738
  H        40.5807227777       33.2027729358       13.1483729381
  H        17.4706676476        1.9476431650       15.9690186317
  H        29.0432929704       19.2910158558        4.4850564840
  H        30.2793965693       20.1177238212       11.8043956368
  H        31.8653388432       16.0619549718       11.0545342347
  H        31.2849647281       15.5837151964        4.5204047444
  H        27.9250286098       18.0025627429        6.4500898387
  H        29.4771617331       15.1567962723        6.3793845935
  H        31.5302748266       19.3309457587        9.4242633065
  H        33.0543538243       15.9647769581        9.4024609990
  H        28.6919348318       16.6733412797        9.0522224485
  H        18.8534733638        0.8691174302        4.3403425604
  H        40.5277541153       35.2291448056       11.9469195114
  H        42.3243357295       34.4191098015       11.5853899497
  H        22.0878342594        0.6919450111        4.3567802242
  H        11.5968905200       18.7129097656        4.3877715376
  H        52.2650450065       18.4312943294       11.6720599870
  H        49.2552205705       16.4771567416       11.5795575861
  H        10.1495765929       15.7982582983        4.2982289222
  H        50.8502860658       17.6923995238       11.9491423166
  H        10.0458871495       17.3944881253        4.0570647155
  H        20.2147802896        0.0023353553        4.0470984462
  H        39.1834950527       36.1244552015       11.6813622577
 Ni        29.6718489537       18.2117342632       10.6543984751
 Ni        31.0742909435       16.3260928621        7.9965964042
 Ni        29.8018574981       18.9162350818        7.7531342021
 Ni        30.2268082600       17.4944553350        5.2432188874
  O        10.6500288151       14.3650836926       13.4807231747
  O        12.6132153424       14.6575244685       14.5788170501
  O        49.1482492679       16.8458307560       15.9846369660
  O        50.3503276411       20.9357769186       13.6428976875
  O        48.3486060112       20.5933740710       14.6608219748
  O        11.0520385758       17.0537623782       14.4956249691
  O        50.3211067193       20.8816834480        2.4119711660
  O        48.3468087424       20.5868608566        1.3323151921
  O        49.5438864301       18.2484611484        2.0733907840
  O        12.3593927987       18.6247084593        0.0048089981
  O        48.6933085936       14.1484903190       14.7462289492
  O         8.2099048560       14.2103683270        1.3276836720
  O        10.7354022822       14.5067614296        2.6694415810
  O        12.5718610946       14.5828217293        1.3335996423
  O        22.8449941996        2.0441676780       13.4819512361
  O        21.6052967601        3.5924248482       14.5847178250
  O        42.0583011576       34.1374227323       15.9738441704
  O        37.9820299214       33.1380565163       13.5674688540
  O        39.2188191469       31.5767104148       14.6622767377
  O        20.3084304362        1.0396327277       14.4969057029
  O        38.0247011101       33.1857438840        2.4202889451
  O        39.2194754542       31.5840580336        1.3312116506
  O        40.6523154488       33.7693771079        2.0654002335
  O        18.2554436301        1.3765898742        0.0018922209
  O        44.6222095784       35.1005572101       14.7536072069
  O        24.2054047291        0.0000055988        1.3259037428
  O        22.7529945759        2.0577108162        2.5888193840
  O        21.6242119595        3.5958236312        1.3472445172
  O        27.4965867539       18.7460767237       13.4915181505
  O        26.7666441954       16.9267088981       14.6484348025
  O        30.6488397965       19.3556601281        0.0301316581
  O        33.6251752716       16.3330240550       13.7356137718
  O        34.3091027595       18.2494219323       14.7413268505
  O        29.5871721646       17.0620353356       14.5595368679
  O        33.6229851460       16.3288164674        2.4126535009
  O        34.3042424312       18.2494012943        1.4096735102
  O        31.6560698262       18.3155148689        2.1469287317
  O        30.3283327049       15.1582278517        0.0822452526
  O        28.5529508709       21.0298987991       14.8989976389
  O        28.5129803000       20.9549985676        1.4151099205
  O        27.4576253855       18.6769044817        2.6651719022
  O        26.6942309312       16.9264138059        1.4187628366
  O        13.1489709504       18.6928419557        2.5926693063
  O        13.9194958976       16.9162501165        1.4102142956
  O        50.5966670000       19.3503288836        0.0256512710
  O        47.6833709460       16.3270325746        2.4223962308
  O        46.9525321440       18.1761360915        1.3291332888
  O        11.0700242226       17.0154336165        1.4947362768
  O        47.6768628871       16.3351236865       13.6480929985
  O        46.9298287354       18.2355852360       14.6605868078
  O        49.5691412659       18.3177365266       13.9772375273
  O        10.3187749939       15.1000971434        0.0021942055
  O        52.6707900961       21.0278557697        1.2469347263
  O        12.1468715785       20.8912153971       14.6681562590
  O        13.1085007395       18.6135935732       13.3204338291
  O        13.9575676997       16.9872176620       14.6601151917
  O        29.9935743751       14.4432381074        2.7357348454
  O        28.0899683792       14.6545237919        1.4976409836
  O        32.1439613811       16.8590868325        0.0796810995
  O        30.9667080573       20.9547687818        2.4075417687
  O        32.9470952778       20.6003796951        1.3401909212
  O        29.5697149179       17.0713433241        1.5808251404
  O        30.8815668031       20.9588452672       13.6626839242
  O        32.8800739165       20.5871581972       14.6649610058
  O        31.6771364377       18.2408349866       13.9094327715
  O        28.2627599843       18.6373725322        0.0785807809
  O        32.4955697800       14.2133641600        1.3386979675
  O        32.4033121988       14.2133568668       14.8195034339
  O        29.8725173260       14.5095633424       13.4081309769
  O        28.0422435446       14.5852988302       14.7454866350
  O        17.8892385499        1.9666419797        2.6679192010
  O        18.9562220669        3.5271729023        1.4131162907
  O        39.1686532149       34.1389306913        0.0023552803
  O        43.2802563119       33.0590064642        2.3367922975
  O        42.0346284310       31.5064479066        1.2467539931
  O        20.3176296953        1.0367075316        1.4852814959
  O        43.2760311790       33.1824953009       13.5698004677
  O        42.0052804084       31.5840299801       14.5779082733
  O        40.5790323439       33.7750493762       13.9307813491
  O        22.3672978198        1.3845761589        0.0029622086
  O        36.6727796378       35.0998228015        1.2384036040
  O        16.4455530889        0.0643248781       14.6632089822
  O        17.9364801607        2.0433762660       13.3212705384
  O        18.9190040308        3.5931397280       14.6607892780
  O        29.7720622643       19.3345908922       12.0875158738
  O        29.8248661629       18.9835930609        3.9788635165
  O        31.5824272176       15.7548272951       12.0128100524
  O        31.3875825098       16.4076990889        4.0012897245
  O        32.1475929967       16.2654946511        9.5716418961
  O        29.4941546152       17.2217745537        9.0729965565
  O        30.2815178530       15.6969720594        6.3433456602
  O        31.3685521141       18.0180558035        6.8347671570
  O        30.5854864322       19.5628749600        9.4162134406
  O        28.7133629886       18.5310818328        6.2478484374
  O        39.4567385146       35.2438357532       11.9968484911
  O        19.1414712889        0.0046689875        3.9956479710
  O        41.9696630089       35.1727755492       12.0821281819
  O        21.6912999850       -0.0693355400        3.9010251386
  O        51.3652245150       18.6142940887       12.0003125952
  O        10.7511791370       18.7471167944        3.9100453604
  O        50.0797352877       16.4127984144       12.0866395363
  O         9.5239450525       16.4831615206        3.9963223474
 Zr         9.2976164038       16.0526516303       14.1774908244
 Zr        49.8367421723       16.0066818477        1.7513470950
 Zr        22.0731953382        0.0298461363       14.1839541866
 Zr        42.4608617864       35.1533249625        1.8060010763
 Zr        29.5834263929       19.0991026876       14.2595546710
 Zr        29.5737966291       19.1713477840        1.8672805619
 Zr        11.0387257888       19.0518305112        1.8329544306
 Zr        11.0446716434       19.1547292413       14.2457798349
 Zr        31.3533601688       16.1049476939        1.8953172576
 Zr        31.4314721600       16.0217963061       14.3027443433
 Zr        18.6010190023       -0.0013751494        1.7685341310
 Zr        18.5063161307       -0.0076751057       14.2087128765
 Zr        12.3029066001       16.3237891014       15.9851631006
 Zr        48.6177104945       18.8333551514        0.0155776925
 Zr        20.3147658208        2.4732706942       15.9853735252
 Zr        40.6435710039       32.6870946930       15.9732973541
 Zr        28.3481210014       16.3460746982        0.0843382369
 Zr        32.6287457875       18.8482693792        0.0603842599
  H        32.2329930761       18.4527817878        6.7589425320
  H        30.8031878466       15.1789820221       11.8740829209
  H        28.9363982599       17.2593178138       11.4578702620
