     574
 i =      158, E =     -4778.8804207497
  C        11.8587839080       14.0535704653       13.7364599359
  C        12.4563437922       12.8906884805       13.0180744740
  C        11.7045599591       12.1716180949       12.0766020314
  C        12.2809363925       11.1094043341       11.3842589807
  C        13.6215768244       10.7397796344       11.6118444204
  C        14.3548701525       11.4435760329       12.5850407579
  C        13.7820004600       12.5085824360       13.2765226168
  C        14.2610805427        9.6490635512       10.8384939479
  C        14.2564319171        9.6569718299        9.4167986098
  C        13.7433568440       10.7591460973        8.6629041266
  C        49.1269018211       21.2332246872       13.8745532294
  C        48.5501780484       22.4012065383       13.1474922402
  C        49.3002403918       23.0685631016       12.1665477723
  C        48.7333020265       24.1077258518       11.4333776081
  C        47.4027618583       24.5093724495       11.6619955895
  C        46.6718167105       23.8604933237       12.6755118758
  C        47.2342617396       22.8155769062       13.4048494570
  C        46.7724984748       25.5870476428       10.8647083746
  C        46.7614966335       25.5574260887        9.4429453302
  C        47.2614908080       24.4423499280        8.6994641880
  C        14.8603226657        8.5705948014        8.7035568057
  C        14.8917309160        8.5970553509       11.5151521490
  C        49.1132724290       21.2034937557        2.1504521503
  C        48.5278808184       22.3648059186        2.8776906929
  C        49.2671474727       23.0255759850        3.8705379894
  C        48.6908141679       24.0601362735        4.6019945738
  C        47.3603826953       24.4568706292        4.3637987473
  C        46.6399319343       23.8119167497        3.3403300676
  C        47.2134917668       22.7760136932        2.6085473758
  C        46.7219337163       25.5318393461        5.1548198006
  C        46.7336940927       25.5282109129        6.5765216839
  C        47.2491993417       24.4290348177        7.3329113352
  C        40.6319121339       17.1445639880        7.3282896271
  C        40.6519145536       17.1728080737        4.5194163907
  C        11.8830597164       14.0866272366        2.2906271827
  C        12.4724348506       12.9108808411        2.9949681209
  C        11.7148436821       12.1775153437        3.9208787913
  C        12.2814372107       11.0950506912        4.5892848305
  C        13.6203195336       10.7214843486        4.3575888307
  C        14.3583824002       11.4372186018        3.3969913403
  C        13.7929484007       12.5184042166        2.7243213649
  C        14.2538608776        9.6246612066        5.1279640901
  C        14.2526518105        9.6446399599        6.5498020026
  C        13.7428358426       10.7536301495        7.2968573106
  C        22.5114926624        3.2447643504       13.7475968720
  C        23.2251754603        4.3504546617       13.0467490073
  C        24.2233800111        4.0704418452       12.1018701583
  C        24.8499196681        5.1097750195       11.4189357223
  C        24.4938653993        6.4515530439       11.6605116835
  C        23.5235271548        6.7232487735       12.6422584682
  C        22.8925614962        5.6856249513       13.3237119782
  C        25.0997656980        7.5574953642       10.8838591621
  C        25.0760256426        7.5473929515        9.4621226368
  C        24.3754796512        6.5467751850        8.7160716660
  C        38.3045187929       31.9292664675       13.8433781751
  C        37.5808972086       30.8375455312       13.1324678288
  C        36.6232931204       31.1362807891       12.1514291981
  C        36.0137544174       30.1121432954       11.4321609746
  C        36.3474479548       28.7649248022       11.6728830800
  C        37.2752703765       28.4737199672       12.6904095462
  C        37.8889345683       29.4963483296       13.4083337244
  C        35.7512387715       27.6697538353       10.8766796582
  C        35.7800233950       27.6845538061        9.4555383242
  C        36.4827704486       28.6883039676        8.7171651905
  C        25.7007712329        8.6157405537        8.7412356573
  C        25.6923805205        8.6358435419       11.5536082318
  C        38.3285240547       31.9616559761        2.1610197991
  C        37.6074850949       30.8871839320        2.9013039101
  C        36.6812854544       31.1930767221        3.9101369320
  C        36.0739681624       30.1724267608        4.6390724962
  C        36.3784844237       28.8205084791        4.3826141043
  C        37.2811319409       28.5246866944        3.3428381581
  C        37.8907681111       29.5417076994        2.6153522287
  C        35.7752899615       27.7191888200        5.1673644152
  C        35.7921687593       27.7101763317        6.5892047627
  C        36.4884799537       28.7006382984        7.3506836716
  C        46.1356443425       26.6208283717        7.2866459446
  C        46.0879027614       26.5801477876        4.4787574876
  C        22.4610757428        3.2550203669        2.2617624288
  C        23.1569311520        4.3630243084        2.9836398608
  C        24.1617520337        4.0753532427        3.9209012708
  C        24.7917844583        5.1045310854        4.6161914965
  C        24.4366793749        6.4503338130        4.3963299408
  C        23.4548628514        6.7313958037        3.4275385445
  C        22.8202695725        5.7024232963        2.7326968319
  C        25.0689147852        7.5473270699        5.1702870031
  C        25.0609156194        7.5413814987        6.5928932540
  C        24.3662329616        6.5452212970        7.3493960951
  C        26.6203867138       17.8548123367       13.7800471244
  C        25.3145267335       17.8983364098       13.0543927973
  C        25.0734773541       18.8765206291       12.0768914222
  C        23.8596331639       18.9018901033       11.3924825029
  C        22.8537608781       17.9500346920       11.6587896925
  C        23.0944758577       16.9931488845       12.6630649981
  C        24.3083145264       16.9642148350       13.3482431547
  C        21.5804518709       17.9365140419       10.8946643670
  C        21.5787220712       17.9077802574        9.4719665119
  C        22.7827789877       17.7756411936        8.7103871734
  C        34.4403790975       17.1999154220       13.9198970689
  C        35.7326761841       17.1504048940       13.1755204255
  C        35.9381493902       16.1803720979       12.1816674837
  C        37.1168026458       16.1715572028       11.4410128667
  C        38.1221628525       17.1295564467       11.6769627966
  C        37.9194809852       18.0789262877       12.6963347043
  C        36.7373296375       18.0947457193       13.4327815980
  C        39.3766546580       17.1396388562       10.8911579360
  C        39.3730553314       17.1592971764        9.4698673233
  C        38.1666231048       17.2865641593        8.7117928974
  C        20.3316294146       17.9273148961        8.7640989469
  C        20.3552183148       17.9443092429       11.5769979251
  C        34.4704601347       17.2474875988        2.1916250989
  C        35.7728210496       17.1730434224        2.9143260945
  C        35.9875874770       16.1925550929        3.8942967112
  C        37.1742874854       16.1764431714        4.6214949236
  C        38.1740769868       17.1403619330        4.3878262235
  C        37.9658449808       18.0957157355        3.3758567335
  C        36.7771288593       18.1168663269        2.6517097982
  C        39.4206129414       17.1611176797        5.1833830820
  C        39.3955635096       17.1714100899        6.6042768528
  C        38.1772387466       17.2906776392        7.3450728319
  C        35.1657263700       26.6294070201        7.2943603431
  C        35.1829180360       26.6490807313        4.4853517187
  C        26.5686225820       17.8244451236        2.3298599547
  C        25.2535937726       17.8690837258        3.0357335098
  C        24.9894844767       18.8724384227        3.9803290606
  C        23.7722391561       18.8959069027        4.6553180488
  C        22.7893207363       17.9165843971        4.4082349961
  C        23.0473887299       16.9388648640        3.4304553365
  C        24.2658077407       16.9127756153        2.7545382632
  C        21.5261091345       17.8972446595        5.1817198972
  C        21.5508214797       17.8870370978        6.6031501104
  C        22.7692258075       17.7664464171        7.3442128147
  C        14.0463538960       17.8285865241        2.2943463728
  C        15.3499360162       17.8845123100        3.0207082742
  C        15.6062153776       18.8865457195        3.9696828107
  C        16.8146836384       18.9061712553        4.6634297137
  C        17.8011107614       17.9265499646        4.4304201275
  C        17.5495146588       16.9487645607        3.4493830213
  C        16.3405795442       16.9245431862        2.7571689476
  C        19.0701942687       17.9084156979        5.1991521523
  C        19.0697452193       17.9061614450        6.6216794505
  C        17.8631838139       17.8100223633        7.3839139343
  C        46.8062090766       17.2202775882        2.1650558111
  C        45.5179022846       17.1634946765        2.9134544482
  C        45.3118083704       16.1905403525        3.9035576988
  C        44.1314895257       16.1787950568        4.6419537231
  C        43.1280631257       17.1400489637        4.4114917536
  C        43.3316944422       18.0929046581        3.3952474739
  C        44.5126686599       18.1086783626        2.6581092390
  C        41.8751213113       17.1562624470        5.1995111223
  C        41.8794745971       17.1561051876        6.6212182790
  C        43.0877872485       17.2485226499        7.3811918738
  C        20.3169980153       17.9155460031        7.3291879778
  C        20.2937681480       17.8876955723        4.5158900102
  C        46.7856411210       17.2309611044       13.8851212202
  C        45.4812993092       17.1258224676       13.1721137197
  C        45.2616346539       16.1307091884       12.2078277467
  C        44.0730573931       16.1076478315       11.4824656740
  C        43.0753218431       17.0763473640       11.7051753782
  C        43.2846191855       18.0399296350       12.7092215737
  C        44.4744483988       18.0697198962       13.4291873406
  C        41.8301600433       17.1049260565       10.9074127919
  C        41.8567228341       17.1279431401        9.4868054416
  C        43.0770705065       17.2326184527        8.7476013750
  C        46.1534152469       26.6372647767        8.7211904429
  C        46.1624569492       26.6561157304       11.5308410324
  C        14.0463992031       17.8325234060       13.7040443905
  C        15.3681285088       17.9085569419       13.0148910971
  C        15.6412447987       18.9239942701       12.0861288405
  C        16.8707146298       18.9624736356       11.4320704683
  C        17.8551071541       17.9847737464       11.6807366005
  C        17.5890184971       16.9988348399       12.6483445063
  C        16.3615863983       16.9597225141       13.3059181601
  C        19.1222356155       17.9591608904       10.9110381967
  C        19.0969025552       17.9308558374        9.4895805103
  C        17.8765343927       17.8210946135        8.7499030665
  C        28.8103784382       14.0932131423        2.3954907187
  C        28.1988827155       12.9173489582        3.0813743161
  C        28.9272184720       12.1678342664        4.0169811406
  C        28.3293991138       11.0912542167        4.6676183469
  C        26.9896007858       10.7401823656        4.4058099204
  C        26.2829664308       11.4696836630        3.4330848257
  C        26.8784891659       12.5465728476        2.7811193580
  C        26.3220508230        9.6589906463        5.1667214072
  C        26.3102503855        9.6850896902        6.5874951225
  C        26.8167805499       10.7972481911        7.3320449636
  C        32.1774850375       21.2376143916        2.1519358711
  C        32.7760171276       22.4007398415        2.8711328420
  C        32.0315965576       23.0776756506        3.8493151354
  C        32.6056265908       24.1154816075        4.5770454292
  C        33.9394717327       24.5040401282        4.3469091559
  C        34.6662790333       23.8458695014        3.3370707858
  C        34.0947654740       22.8024582966        2.6114412781
  C        34.5719958491       25.5779095420        5.1461998888
  C        34.5705027253       25.5467566205        6.5678126178
  C        34.0631476492       24.4314359137        7.3066521758
  C        25.6982995253        8.6088615448        7.3067930594
  C        25.6845092458        8.6089558174        4.4936015452
  C        32.1144365489       21.2330317490       13.8869252546
  C        32.7119844856       22.3791688514       13.1419506928
  C        31.9801676815       23.0425661993       12.1447723775
  C        32.5673495833       24.0652540690       11.4040347387
  C        33.8992993719       24.4554804299       11.6429671569
  C        34.6142384895       23.8063150865       12.6679182798
  C        34.0324909716       22.7769050204       13.4032456922
  C        34.5421982595       25.5331623395       10.8563434979
  C        34.5540840834       25.5240455320        9.4343583305
  C        34.0538773175       24.4208783398        8.6733777486
  C        40.6201121601       17.1342136384        8.7623019325
  C        40.5991473399       17.1291484602       11.5718762923
  C        28.7146360730       14.0992579400       13.7783111306
  C        28.1083029306       12.9509990515       13.0426285922
  C        28.8561366108       12.2317125810       12.0976190613
  C        28.2797217845       11.1668261792       11.4094051401
  C        26.9404474192       10.7947349876       11.6417125940
  C        26.2093747419       11.5016886128       12.6144700132
  C        26.7841763525       12.5664912016       13.3056000292
  C        26.3050604664        9.6965912254       10.8743654081
  C        26.3030052976        9.7044663056        9.4529150342
  C        26.8108210872       10.8079087490        8.6976244827
  C        18.1352668664        3.1809405586        2.3222025482
  C        17.4059321626        4.2781777188        3.0207930890
  C        16.3904415596        3.9997769095        3.9485513952
  C        15.7427067306        5.0397517808        4.6120504437
  C        16.0943588605        6.3835090610        4.3721575734
  C        17.0834318882        6.6530410848        3.4080676136
  C        17.7325306094        5.6157224923        2.7429947585
  C        15.4701422169        7.4912324387        5.1352386746
  C        15.4854328389        7.4905264994        6.5569542677
  C        16.1869121371        6.4968668951        7.3101397550
  C        42.9459746774       31.8594535242        2.0780041215
  C        43.6462823727       30.7718373676        2.8220181933
  C        44.5919291786       31.0931424270        3.8079882258
  C        45.1976132693       30.0875907099        4.5556530316
  C        44.8710590810       28.7345433167        4.3408683688
  C        43.9450823957       28.4202121353        3.3277966593
  C        43.3362788071       29.4253635782        2.5797673113
  C        45.4886689799       27.6552485541        5.1440380089
  C        45.4928538736       27.6808996786        6.5657249039
  C        44.8057102962       28.6889116365        7.3123407973
  C        14.8565630983        8.5630657870        7.2693348944
  C        14.8749352710        8.5630630151        4.4566614628
  C        42.9464395064       31.9615437134       13.8038442580
  C        43.6916803429       30.8854596415       13.0903703051
  C        44.6563412508       31.1913510795       12.1181267952
  C        45.2778527947       30.1717619991       11.4004050858
  C        44.9540069125       28.8214489727       11.6379914815
  C        44.0204155506       28.5237891742       12.6486680176
  C        43.3921640709       29.5405612096       13.3608369111
  C        45.5630918404       27.7240614516       10.8527703531
  C        45.5333792325       27.7173808868        9.4314777975
  C        44.8269809163       28.7075566956        8.6785238726
  C        35.1586386874       26.6168202722        8.7290008708
  C        35.1522366374       26.5922705173       11.5387141353
  C        18.1484066796        3.2469243289       13.7015595648
  C        17.4298255085        4.3437734560       12.9922930858
  C        16.4147695212        4.0524846365       12.0685575624
  C        15.7664436284        5.0831009677       11.3931628325
  C        16.1209156035        6.4283583411       11.6160751411
  C        17.1120643761        6.7117748842       12.5735693592
  C        17.7597269042        5.6828664632       13.2533418665
  C        15.4905101442        7.5240688645       10.8435933280
  C        15.4964420491        7.5074423786        9.4224593224
  C        16.1931315433        6.5057013068        8.6757443493
  H        10.6723638404       12.4656111971       11.8997471502
  H        11.6946073605       10.5507632181       10.6578743603
  H        15.3919956561       11.1691976066       12.7665525778
  H        14.3515616014       13.0720724790       14.0116804122
  H        13.3763858259       11.6312774894        9.1962345284
  H        50.3229507632       22.7485236437       11.9818046930
  H        49.3198173353       24.6230018017       10.6758289176
  H        45.6423284260       24.1612787763       12.8586888479
  H        46.6632486176       22.2903433660       14.1669463160
  H        47.6301110986       23.5760102087        9.2411521265
  H        14.8720106351        8.5883225559       12.6034579627
  H        50.2872266614       22.7027813557        4.0653821905
  H        49.2692519547       24.5756552592        5.3654232370
  H        45.6105210679       24.1091576479        3.1512909976
  H        46.6526619941       22.2538470914        1.8369926827
  H        47.6080407208       23.5519419454        6.8020129619
  H        40.6585876358       17.1391110949        3.4316497212
  H        48.6871070425       14.0950399139       15.7949133440
  H        10.6813091001       12.4664683310        4.0981107845
  H        11.6895879561       10.5244990559        5.3018091090
  H        15.3938838657       11.1594888899        3.2112236744
  H        14.3653727264       13.0879638472        1.9960032123
  H        13.3760853058       11.6222663640        6.7581963548
  H        47.9301864004       14.2186057796        1.7160284794
  H        47.7801397805       14.3740082032       14.4901722965
  H        49.0843031426       18.5527012115        2.8726660994
  H        10.4161612910       14.1343214380        0.0038578844
  H        24.4860342655        3.0319131704       11.9129935391
  H        25.6243138026        4.8920492039       10.6865768526
  H        23.2406865862        7.7560285056       12.8351181783
  H        22.1213005382        5.8860824638       14.0634022925
  H        23.8135655502        5.7905805140        9.2565030648
  H        36.3817004667       32.1781858204       11.9548895923
  H        35.2703898201       30.3462248210       10.6733049572
  H        37.5398299137       27.4360464379       12.8828904895
  H        38.6312069154       29.2803572542       14.1730099793
  H        37.0487915106       29.4380783155        9.2622322938
  H        25.7222935621        8.6231597021       12.6416532580
  H        36.4585581234       32.2366699226        4.1207335801
  H        35.3507201887       30.4150338312        5.4144940283
  H        37.5275429070       27.4850302679        3.1375914410
  H        38.6107537250       29.3181933590        1.8319265392
  H        37.0599663161       29.4594522554        6.8239825384
  H        46.1092716706       26.5875166549        3.3907210602
  H        44.6680992430       35.1160905367       15.8088750400
  H        24.4394338041        3.0367677729        4.0858770432
  H        25.5746130027        4.8750659175        5.3359884826
  H        23.1695279201        7.7662137389        3.2494246275
  H        22.0463120799        5.9158301882        1.9990490341
  H        23.7965585938        5.7883715932        6.8179866307
  H        44.9533336676       34.3898913164        1.6998986960
  H        44.9012404084       34.2066351142       14.4855208935
  H        40.6655532984       33.2086947820        2.8580831724
  H        23.1504806091        1.9575889822        0.0099793741
  H        25.8524993801       19.6070127744       11.8689576213
  H        23.6760438079       19.6684699417       10.6426357878
  H        22.3304562102       16.2487250659       12.8778612204
  H        24.5035948106       16.2129684449       14.1099985642
  H        23.7230832179       17.6519270706        9.2396353513
  H        35.1572176412       15.4444696223       12.0029662317
  H        37.2772713568       15.4125512871       10.6783385443
  H        38.6884299687       18.8260031412       12.8820096393
  H        36.5632128172       18.8423569568       14.2032780603
  H        37.2277201890       17.4125151941        9.2434882806
  H        20.3625160206       17.9898943938       12.6646444117
  H        35.2055741351       15.4608250546        4.0826108629
  H        37.3409640355       15.4134556677        5.3787072244
  H        38.7320355906       18.8459463420        3.1916340789
  H        36.5935370923       18.8720735970        1.8911647669
  H        37.2463339031       17.4185307008        6.8000307282
  H        35.1496787598       26.6767434925        3.3978523834
  H        28.5045474652       21.0857396266       15.9703885834
  H        25.7506885079       19.6268369504        4.1663184807
  H        23.5669558913       19.6780067454        5.3831247499
  H        22.2963805952       16.1765194614        3.2334793360
  H        24.4814295756       16.1462001731        2.0140453014
  H        23.6991185154       17.6359639561        6.7988374045
  H        29.0173204579       21.7130878841        1.7619812373
  H        29.1502722599       21.7418885486       14.6089944742
  H        32.0679036269       18.5517460234        3.0082787619
  H        27.3662926571       19.0243521788        0.0879902413
  H        14.8479775367       19.6457321982        4.1481131188
  H        17.0098040710       19.6896366530        5.3925602525
  H        18.3007614362       16.1846670715        3.2603598116
  H        16.1349432203       16.1564329089        2.0154299324
  H        16.9200923596       17.6949226637        6.8576024933
  H        46.0934812043       15.4571538133        4.0872783253
  H        43.9714672076       15.4164543986        5.4012169887
  H        42.5648558022       18.8431085050        3.2137063787
  H        44.6869435188       18.8585413730        1.8900626708
  H        44.0299203289       17.3636145975        6.8528660843
  H        20.2869396473       17.9183775509        3.4277880097
  H        46.0381924297       15.3908144880       12.0276822421
  H        43.9051704125       15.3364756541       10.7338036721
  H        42.5186449325       18.7917389704       12.8875820160
  H        44.6586446606       18.8332263155       14.1809320740
  H        44.0110151191       17.3342607992        9.2927174448
  H        46.1992853117       26.6826608798       12.6182865374
  H        52.7412802119       21.0627286696        0.1998295515
  H        14.8800525181       19.6767544549       11.8932111225
  H        17.0811697338       19.7527597186       10.7146580803
  H        18.3404197001       16.2377701445       12.8485445621
  H        16.1411815757       16.1852832020       14.0365759043
  H        16.9433818072       17.7145434249        9.2948292472
  H        52.3228609510       21.6734401143       14.2890443941
  H        52.0135602939       21.7023140875        1.5007989427
  H        49.0677317922       18.6078016342       13.1989497585
  H        13.2479406547       19.0162488553       15.9723741331
  H        29.9598576933       12.4436404197        4.2190134138
  H        28.8952727683       10.5087006583        5.3914876502
  H        25.2476840328       11.2081913991        3.2239198751
  H        26.3309159276       13.1313572749        2.0460463039
  H        27.1840970513       11.6630375031        6.7894779619
  H        31.0071322581       22.7642242830        4.0348139196
  H        32.0236989772       24.6393370208        5.3322000115
  H        35.6986280394       24.1370017976        3.1542159410
  H        34.6613122351       22.2684634185        1.8520675300
  H        33.7027216840       23.5641961688        6.7608287034
  H        25.7128550646        8.5900339297        3.4055561181
  H        30.9531562029       22.7401929299       11.9537237274
  H        31.9932705043       24.5791612856       10.6361998522
  H        35.6452888220       24.0972583730       12.8580544271
  H        34.5894950897       22.2527409619       14.1763816476
  H        33.6854793148       23.5455192521        9.2009541942
  H        40.5911234952       17.0858896800       12.6593235931
  H        32.5178535714       14.1364847891        0.3494125437
  H        29.8930096405       12.5123520792       11.9256677223
  H        28.8667140307       10.6035143277       10.6871400045
  H        25.1729903463       11.2267010346       12.7995194218
  H        26.2177005532       13.1270221456       14.0455982013
  H        27.1721714497       11.6823530747        9.2307060026
  H        33.2778409710       14.1581811994       14.4162108203
  H        33.4054190503       14.4525087717        1.6623908311
  H        32.1543891164       18.5415667223       13.1799559882
  H        30.2309256607       14.1892337318        0.0807727542
  H        16.1185314429        2.9632609348        4.1351153050
  H        14.9533957530        4.8203199817        5.3278487599
  H        17.3655656359        7.6859489267        3.2146855312
  H        18.5142515178        5.8184012654        2.0148181268
  H        16.7533824960        5.7394516577        6.7766596778
  H        44.8283100360       32.1402116386        3.9821017295
  H        45.9375664565       30.3412843669        5.3115302249
  H        43.6822242161       27.3781662757        3.1577960412
  H        42.5995045208       29.1900366797        1.8152541423
  H        44.2302555156       29.4365946128        6.7740258032
  H        14.8511336714        8.5463060186        3.3684413063
  H        44.8999318361       32.2340269057       11.9267195461
  H        46.0247974695       30.4129534147       10.6471965992
  H        43.7633609842       27.4840690830       12.8401532276
  H        42.6455793000       29.3177581437       14.1191945572
  H        44.2683629337       29.4703654922        9.2131042368
  H        35.1111539912       26.6051738770       12.6262220722
  H        36.6049346375       35.1339110113        0.1858198551
  H        16.1437960307        3.0128966726       11.8987165014
  H        14.9742150899        4.8562252634       10.6829805738
  H        17.3953274678        7.7472714042       12.7506813588
  H        18.5423663545        5.8933279501       13.9783554126
  H        16.7644652724        5.7553855077        9.2141802335
  H        36.2781123659       34.4826925906       14.2680103356
  H        36.3803074788       34.2094417726        1.5051271746
  H        40.5803192708       33.2024791524       13.1484330104
  H        17.4706679869        1.9474575972       15.9689608698
  H        29.1031531539       19.3754419553        4.5298361453
  H        30.2896369220       20.0092252330       11.8406914489
  H        31.8822580981       16.1187003224       11.0810064836
  H        31.3041355274       15.6692321799        4.6050032952
  H        28.0864379183       18.0244146731        6.5776237365
  H        29.5337955064       15.3607057958        6.4936595542
  H        31.6786140321       19.0667755684        9.7215982170
  H        33.2483541983       16.1306205736        9.5504785001
  H        28.7895618951       16.6252881959        9.0245703769
  H        18.8527131004        0.8687043088        4.3403549349
  H        40.5277851364       35.2291789954       11.9469804510
  H        42.3238974287       34.4187185628       11.5856296975
  H        22.0876152326        0.6919093877        4.3567267596
  H        11.5968334722       18.7130671220        4.3877231489
  H        52.2650652892       18.4312368002       11.6722062353
  H        49.2551732661       16.4771981482       11.5795111637
  H        10.1503070008       15.7982360574        4.2978289100
  H        50.8502880018       17.6924613698       11.9491328718
  H        10.0461927735       17.3945997282        4.0570694749
  H        20.2138419538        0.0019969883        4.0472058703
  H        39.1834195143       36.1244026871       11.6813431674
 Ni        29.6333568950       18.1345395792       10.7407861140
 Ni        31.2826719124       16.3970370454        8.0787138732
 Ni        29.9666542779       18.8236317312        8.0748516728
 Ni        30.0596523452       17.4450853221        5.2442827142
  O        10.6499869012       14.3651514033       13.4806839152
  O        12.6131880235       14.6574983661       14.5788036126
  O        49.1481109098       16.8458811089       15.9845930803
  O        50.3502871113       20.9358148135       13.6429321902
  O        48.3485889396       20.5933340431       14.6607976707
  O        11.0517738867       17.0538411803       14.4956573908
  O        50.3210256998       20.8816451330        2.4119507907
  O        48.3467614943       20.5867607817        1.3322728491
  O        49.5438126994       18.2484432085        2.0733709661
  O        12.3593569497       18.6247127047        0.0047813293
  O        48.6932554212       14.1485632269       14.7461941087
  O         8.2098522329       14.2103830516        1.3276377592
  O        10.7353908074       14.5067463987        2.6694252853
  O        12.5718360500       14.5828283855        1.3335960239
  O        22.8449534811        2.0438743114       13.4819740351
  O        21.6054912456        3.5925549851       14.5844541336
  O        42.0582070183       34.1373459522       15.9738143412
  O        37.9820088809       33.1372716322       13.5673336606
  O        39.2190464308       31.5766945140       14.6624086933
  O        20.3083353778        1.0395330468       14.4969124327
  O        38.0245370612       33.1854647794        2.4203245603
  O        39.2193708922       31.5839668132        1.3313071232
  O        40.6522515443       33.7693102767        2.0654041067
  O        18.2555192140        1.3765073756        0.0018646245
  O        44.6222097896       35.1005616832       14.7536313414
  O        24.2054119426        0.0000054887        1.3259043119
  O        22.7529575672        2.0572674360        2.5886672239
  O        21.6243844119        3.5959964259        1.3475902616
  O        27.4914903988       18.7457691130       13.4969945958
  O        26.7646940893       16.9245209278       14.6502854932
  O        30.6423547652       19.3533877692        0.0747244448
  O        33.5872070154       16.2816392142       13.6622415900
  O        34.2729654526       18.1714808321       14.7344691814
  O        29.5805215821       17.0583713596       14.5677633429
  O        33.6089664053       16.3300459613        2.4224302719
  O        34.3036775399       18.2448523904        1.4120555005
  O        31.6518519284       18.3154221536        2.1614682385
  O        30.3270299287       15.1559795812        0.0878273724
  O        28.5519445294       21.0313626006       14.9024334371
  O        28.5132227888       20.9554027693        1.4186678143
  O        27.4535035322       18.6781592674        2.6636897683
  O        26.6933251573       16.9257834320        1.4195895065
  O        13.1485212565       18.6929494583        2.5925625297
  O        13.9192743929       16.9162168273        1.4101884376
  O        50.5964340171       19.3503010716        0.0254989210
  O        47.6832277074       16.3271481784        2.4225182607
  O        46.9520981481       18.1760389166        1.3294262091
  O        11.0698928164       17.0155217717        1.4947103726
  O        47.6759867911       16.3355863458       13.6479611047
  O        46.9278073652       18.2358248636       14.6598949575
  O        49.5688401349       18.3177602144       13.9771824635
  O        10.3187074790       15.1001538001        0.0021838837
  O        52.6707759339       21.0278539124        1.2469397524
  O        12.1468371662       20.8912058439       14.6681606776
  O        13.1084043131       18.6136603204       13.3204668340
  O        13.9574529403       16.9871622177       14.6601423564
  O        29.9940157835       14.4441323307        2.7364103109
  O        28.0898182826       14.6538995340        1.4991055189
  O        32.1379793813       16.8511273688        0.0910702915
  O        30.9630146236       20.9508118210        2.4136596248
  O        32.9440315079       20.6002289393        1.3425041400
  O        29.5660679222       17.0723563662        1.5809955989
  O        30.8823732763       20.9556421348       13.6649980975
  O        32.8817703712       20.5819855206       14.6681174533
  O        31.6763980740       18.2423652198       13.9694539349
  O        28.2563583386       18.6366315842        0.0850088299
  O        32.4949455595       14.2126164065        1.4026078943
  O        32.4004203180       14.2114894011       14.8297187174
  O        29.8693306988       14.5071749931       13.4099795276
  O        28.0400289956       14.5842221119       14.7472347592
  O        17.8892432434        1.9666217217        2.6679366822
  O        18.9562510494        3.5271446268        1.4131179488
  O        39.1685939385       34.1388986332        0.0023173630
  O        43.2802569778       33.0589596181        2.3368090719
  O        42.0346138231       31.5064396567        1.2467587007
  O        20.3175299698        1.0366171168        1.4852962091
  O        43.2760949056       33.1826062826       13.5698195579
  O        42.0053411825       31.5841159151       14.5779126806
  O        40.5790288984       33.7749902518       13.9306751405
  O        22.3672460772        1.3845593173        0.0029729478
  O        36.6727601979       35.0997952359        1.2384062388
  O        16.4455603372        0.0642154439       14.6631598305
  O        17.9364753047        2.0433520072       13.3212733343
  O        18.9190627894        3.5931212525       14.6607843687
  O        29.7314241473       19.2741097541       12.1607744494
  O        29.7852415012       18.9052215350        4.0112473397
  O        31.4755994761       15.8354462150       12.0060517793
  O        31.2608084143       16.4843171662        4.0663773507
  O        32.3265140830       16.4082656933        9.6667464553
  O        29.6100475447       17.1275967592        9.1635059911
  O        30.3335526218       15.9052533531        6.4228159732
  O        31.6053788743       18.1091577012        7.1587591118
  O        30.7979788955       19.4852042301        9.6810209684
  O        28.9373526581       18.4697783805        6.4357150337
  O        39.4567491191       35.2438269978       11.9968537090
  O        19.1407362340        0.0042401513        3.9957103023
  O        41.9696757434       35.1727639177       12.0821200485
  O        21.6911837464       -0.0693929256        3.9009477970
  O        51.3652050601       18.6143118988       12.0003083294
  O        10.7511123580       18.7472306912        3.9100199170
  O        50.0796615831       16.4128054795       12.0866377041
  O         9.5244502409       16.4831124641        3.9963153720
 Zr         9.2973819506       16.0528091007       14.1774004283
 Zr        49.8367172483       16.0066890613        1.7513683570
 Zr        22.0730446941        0.0295988729       14.1840358986
 Zr        42.4606939176       35.1530408416        1.8059960683
 Zr        29.5766354453       19.0966145845       14.2967660868
 Zr        29.5634100143       19.1679259049        1.8825599145
 Zr        11.0384925143       19.0519503285        1.8328471296
 Zr        11.0444602041       19.1548052791       14.2457439478
 Zr        31.3331949260       16.1196781077        1.9164290037
 Zr        31.4202200433       16.0034401144       14.3054069640
 Zr        18.6008209632       -0.0017482987        1.7684679872
 Zr        18.5062210068       -0.0080787331       14.2085711131
 Zr        12.3026935409       16.3237443212       15.9851206102
 Zr        48.6172073277       18.8332799502        0.0152949665
 Zr        20.3147147754        2.4730027570       15.9853939255
 Zr        40.6432868030       32.6867776617       15.9733359549
 Zr        28.3406871805       16.3409210570        0.0812864412
 Zr        32.6221805281       18.8371781492        0.0678410975
  H        32.4104764835       18.5534103001        7.4782887453
  H        30.6750762532       15.3117498129       11.8124472784
  H        28.7363111308       17.2417039833       11.4493383401
