     574
 i =      239, E =     -4778.8412049021
  C        11.8588868341       14.0535334947       13.7364262054
  C        12.4564475324       12.8906634776       13.0180717278
  C        11.7045983541       12.1713917297       12.0768010373
  C        12.2809998060       11.1091908223       11.3844692089
  C        13.6217364620       10.7397865461       11.6118614769
  C        14.3551224868       11.4437798187       12.5848442553
  C        13.7822073324       12.5087637658       13.2763251445
  C        14.2612199796        9.6490651158       10.8385017997
  C        14.2564604166        9.6569321364        9.4168077631
  C        13.7432077636       10.7590355880        8.6629331997
  C        49.1270066722       21.2331370505       13.8745863730
  C        48.5502639679       22.4011640323       13.1474496238
  C        49.3002549726       23.0684369465       12.1664211008
  C        48.7333111387       24.1075859593       11.4332136491
  C        47.4028255739       24.5092925268       11.6619664935
  C        46.6719277282       23.8604974691       12.6755587604
  C        47.2344062919       22.8156046630       13.4049029305
  C        46.7725105278       25.5869671833       10.8647207126
  C        46.7613286715       25.5573139641        9.4429627021
  C        47.2611736252       24.4421815777        8.6994653435
  C        14.8603814335        8.5705861501        8.7035489219
  C        14.8920748294        8.5971838210       11.5151642681
  C        49.1133583614       21.2034461241        2.1505349590
  C        48.5279850949       22.3648524002        2.8777874879
  C        49.2672033669       23.0255265615        3.8707098332
  C        48.6908850703       24.0601181046        4.6021523366
  C        47.3605020726       24.4569157181        4.3638608158
  C        46.6400997954       23.8120637651        3.3403058147
  C        47.2136487864       22.7761196387        2.6085692225
  C        46.7220048927       25.5318834566        5.1548553136
  C        46.7335382934       25.5281585190        6.5765569809
  C        47.2489080289       24.4288952174        7.3329141210
  C        40.6365646363       17.1459614584        7.3248309606
  C        40.6532290018       17.1669206335        4.5160624747
  C        11.8831169431       14.0865777430        2.2906331904
  C        12.4725341236       12.9108925560        2.9949753613
  C        11.7148974889       12.1773867716        3.9207423814
  C        12.2815297791       11.0949455637        4.5891421590
  C        13.6204978975       10.7215763151        4.3576215086
  C        14.3586435035       11.4374903847        3.3972228498
  C        13.7931599745       12.5186420102        2.7245420567
  C        14.2540739091        9.6247680369        5.1279800673
  C        14.2526776390        9.6446328719        6.5498156220
  C        13.7426941746       10.7535299633        7.2968893588
  C        22.5128386866        3.2448816849       13.7483477327
  C        23.2290929033        4.3501092929       13.0503348359
  C        24.2264795784        4.0699831024       12.1045035610
  C        24.8549498357        5.1094355736       11.4235938611
  C        24.5018618204        6.4515281417       11.6679829443
  C        23.5329830481        6.7231709890       12.6511892120
  C        22.8998701414        5.6855296969       13.3305641880
  C        25.1075489465        7.5578604209       10.8917082143
  C        25.0780880279        7.5499916017        9.4702074154
  C        24.3747066553        6.5505382506        8.7254035114
  C        38.3040240030       31.9298560992       13.8438128909
  C        37.5775620139       30.8388932721       13.1332259003
  C        36.6177484817       31.1401848961       12.1551578641
  C        36.0045111752       30.1179259776       11.4363003530
  C        36.3367686412       28.7700333181       11.6746687507
  C        37.2671449049       28.4760341596       12.6889635860
  C        37.8844595076       29.4970186254       13.4064734486
  C        35.7368772863       27.6770976852       10.8777983713
  C        35.7662852873       27.6931880190        9.4566433078
  C        36.4723674661       28.6955536707        8.7194966203
  C        25.6999420754        8.6196729711        8.7489393209
  C        25.7052616065        8.6334015192       11.5610881449
  C        38.3292516320       31.9628914120        2.1608211068
  C        37.6079895448       30.8894771236        2.9026401317
  C        36.6808247335       31.1981613154        3.9095288023
  C        36.0716739861       30.1793265433        4.6392538887
  C        36.3757405666       28.8271630931        4.3847176597
  C        37.2804126672       28.5283791245        3.3477363173
  C        37.8918457121       29.5437410994        2.6195515530
  C        35.7687090142       27.7278362527        5.1686909133
  C        35.7825666447       27.7193071700        6.5904243065
  C        36.4800312052       28.7081151783        7.3530356347
  C        46.1355314156       26.6207950134        7.2866950614
  C        46.0881997811       26.5803217063        4.4787919535
  C        22.4606001569        3.2559508046        2.2633507438
  C        23.1536187290        4.3643472900        2.9873495640
  C        24.1547818384        4.0780324278        3.9291460994
  C        24.7818701312        5.1079283361        4.6262313546
  C        24.4281938205        6.4539418728        4.4040635862
  C        23.4500607354        6.7334450637        3.4308420277
  C        22.8182102999        5.7038358629        2.7343207234
  C        25.0590474954        7.5521398101        5.1780714465
  C        25.0538783222        7.5463608941        6.6009571918
  C        24.3614632868        6.5497221254        7.3587741898
  C        26.6236294708       17.8591644992       13.7807510871
  C        25.3165697751       17.8990338371       13.0539390778
  C        25.0654526560       18.8857668248       12.0876775975
  C        23.8521953127       18.9071262993       11.4019364128
  C        22.8544189755       17.9443720503       11.6587377119
  C        23.1038849655       16.9790719376       12.6525913530
  C        24.3186356992       16.9528383401       13.3369092066
  C        21.5806371754       17.9303114061       10.8947345706
  C        21.5791745122       17.9045830555        9.4720320226
  C        22.7837448916       17.7759106191        8.7106783973
  C        34.4797421064       17.2577842805       13.9585413851
  C        35.7650237115       17.2002308027       13.2024987130
  C        35.9635953219       16.2150436562       12.2230394476
  C        37.1342090974       16.1993029513       11.4697573011
  C        38.1376926197       17.1640168453       11.6813482257
  C        37.9419042236       18.1303858392       12.6860220750
  C        36.7670425114       18.1541684751       13.4333067056
  C        39.3878173149       17.1631675387       10.8893336615
  C        39.3810753701       17.1694884255        9.4682428096
  C        38.1725470121       17.2836101437        8.7116864427
  C        20.3323490687       17.9237463103        8.7637517081
  C        20.3554615947       17.9368764170       11.5769114998
  C        34.4755624972       17.2445628865        2.1873361817
  C        35.7792179075       17.1690120399        2.9083863633
  C        35.9914647680       16.1879090558        3.8882707893
  C        37.1767272219       16.1710465540        4.6177217019
  C        38.1770502148       17.1346279533        4.3855061153
  C        37.9715541432       18.0899620049        3.3729109266
  C        36.7841806741       18.1119921728        2.6465932075
  C        39.4229231633       17.1552321869        5.1815194574
  C        39.3991914198       17.1672845229        6.6023941377
  C        38.1814045033       17.2810767871        7.3449285461
  C        35.1516945918       26.6404246159        7.2942353077
  C        35.1756330080       26.6591460868        4.4853580327
  C        26.5705312310       17.8264789928        2.3285269314
  C        25.2548266356       17.8710005846        3.0340856128
  C        24.9905116122       18.8743070891        3.9787000546
  C        23.7734641970       18.8971815354        4.6541988753
  C        22.7909145570       17.9173325057        4.4076755501
  C        23.0492440516       16.9396587885        3.4299141189
  C        24.2673797499       16.9142558680        2.7533024626
  C        21.5277144009       17.8973601238        5.1814515963
  C        21.5522003580       17.8866111837        6.6029621113
  C        22.7706356221       17.7676912709        7.3444378807
  C        14.0467518340       17.8284822822        2.2944267956
  C        15.3506146484       17.8843328059        3.0204428793
  C        15.6068875744       18.8854946938        3.9703786193
  C        16.8155670557       18.9048064942        4.6638320951
  C        17.8023991039       17.9257946489        4.4297137442
  C        17.5508563030       16.9490445422        3.4475970538
  C        16.3416602111       16.9250344793        2.7557478150
  C        19.0715844055       17.9073075636        5.1984852578
  C        19.0709669008       17.9037205723        6.6210340489
  C        17.8643531292       17.8057739376        7.3830078971
  C        46.8067700594       17.2194358997        2.1638612234
  C        45.5181479036       17.1611257368        2.9105186485
  C        45.3125105935       16.1874656233        3.8998651113
  C        44.1318644016       16.1747967441        4.6373347758
  C        43.1286834421       17.1359508404        4.4062423108
  C        43.3314828557       18.0889791455        3.3902230715
  C        44.5128088851       18.1057037791        2.6540359996
  C        41.8767883969       17.1526767431        5.1948344867
  C        41.8831673194       17.1567523313        6.6162150080
  C        43.0927947730       17.2529222826        7.3735737305
  C        20.3181293164       17.9133433256        7.3287732683
  C        20.2953681574       17.8875670558        4.5154932985
  C        46.7881264788       17.2323195989       13.8844687921
  C        45.4861727342       17.1324181749       13.1683465557
  C        45.2654092129       16.1380304130       12.2038230594
  C        44.0783882226       16.1197351434       11.4763153450
  C        43.0850135989       17.0930279742       11.6974571934
  C        43.2958258470       18.0567546097       12.7007783043
  C        44.4838015792       18.0814748983       13.4231793168
  C        41.8402160811       17.1237411151       10.9010696856
  C        41.8646594856       17.1401279155        9.4808322234
  C        43.0841021302       17.2420912224        8.7399583057
  C        46.1532493429       26.6371807643        8.7212457103
  C        46.1626683204       26.6561293276       11.5308668018
  C        14.0464108867       17.8319742483       13.7036645131
  C        15.3680041939       17.9066164077       13.0141253504
  C        15.6416608418       18.9205597108       12.0838869232
  C        16.8711867392       18.9574981797       11.4298433730
  C        17.8552525812       17.9797511680       11.6799227538
  C        17.5885887903       16.9952858526       12.6488733523
  C        16.3610943052       16.9577123196       13.3064054096
  C        19.1225398813       17.9530740802       10.9105582529
  C        19.0975305378       17.9258516360        9.4890666302
  C        17.8773897871       17.8158182633        8.7490000848
  C        28.8072683728       14.0905814684        2.3946833888
  C        28.1940695374       12.9160876366        3.0811583342
  C        28.9185210444       12.1707117540        4.0231862851
  C        28.3183274881       11.0969051941        4.6759428463
  C        26.9796138968       10.7442701155        4.4103623203
  C        26.2772007102       11.4691544504        3.4310107831
  C        26.8751228372       12.5433677712        2.7767320835
  C        26.3108719010        9.6650419390        5.1728613723
  C        26.3013109749        9.6914538331        6.5939675391
  C        26.8072958272       10.8039783816        7.3386565761
  C        32.1770769178       21.2434929308        2.1508435881
  C        32.7722283246       22.4114190156        2.8664074007
  C        32.0222198218       23.0934157481        3.8368829004
  C        32.5937953174       24.1318070058        4.5659000791
  C        33.9304448435       24.5157541272        4.3441937216
  C        34.6626730827       23.8530252209        3.3414065317
  C        34.0935905635       22.8089564963        2.6146412800
  C        34.5608197910       25.5896570033        5.1449325185
  C        34.5551535948       25.5595203385        6.5662926824
  C        34.0431024377       24.4456335683        7.3040789964
  C        25.6923151517        8.6141145937        7.3142108612
  C        25.6729931590        8.6144219804        4.5006927968
  C        32.1052870458       21.2319987949       13.8817618514
  C        32.6998104016       22.3810729472       13.1355730130
  C        31.9617612612       23.0530605256       12.1486120588
  C        32.5460972873       24.0782002850       11.4080710228
  C        33.8815426107       24.4629208091       11.6387166809
  C        34.6024598245       23.8050731368       12.6534394678
  C        34.0233738758       22.7730229323       13.3875657531
  C        34.5228125289       25.5434547563       10.8545151269
  C        34.5346152747       25.5363999094        9.4329442797
  C        34.0321754622       24.4351942474        8.6706513837
  C        40.6268776639       17.1422417261        8.7586329713
  C        40.6110526677       17.1554270260       11.5677920399
  C        28.7376350495       14.0733547265       13.8206304348
  C        28.1257692619       12.9305943939       13.0776796496
  C        28.8658276937       12.2345724809       12.1097110987
  C        28.2874966520       11.1776834022       11.4100786148
  C        26.9544177775       10.7901454313       11.6542008544
  C        26.2311143114       11.4758619179       12.6480115639
  C        26.8073020917       12.5337404982       13.3488825254
  C        26.3156135224        9.6964474960       10.8826020690
  C        26.3046557553        9.7075294133        9.4607224285
  C        26.8064973384       10.8131157887        8.7045124078
  C        18.1354509289        3.1811685162        2.3222924194
  C        17.4062454172        4.2783557120        3.0208831700
  C        16.3904730549        4.0000398928        3.9483738229
  C        15.7428194517        5.0400472654        4.6118631996
  C        16.0947917272        6.3837654852        4.3721845469
  C        17.0842087174        6.6532401713        3.4084381659
  C        17.7332420185        5.6158774726        2.7433781011
  C        15.4705044223        7.4914537442        5.1352469054
  C        15.4856492719        7.4906278673        6.5569573108
  C        16.1872309001        6.4970288084        7.3101251688
  C        42.9460126127       31.8595996235        2.0780303654
  C        43.6464486415       30.7719587784        2.8219658583
  C        44.5917015127       31.0933385557        3.8082899803
  C        45.1974297137       30.0878108624        4.5559669381
  C        44.8713428984       28.7346988370        4.3408698193
  C        43.9458772065       28.4203193599        3.3273285413
  C        43.3370381035       29.4254295903        2.5792741334
  C        45.4888730115       27.6553867243        5.1440659412
  C        45.4928641954       27.6809364586        6.5657606693
  C        44.8057933741       28.6889808205        7.3124050778
  C        14.8566671774        8.5630976763        7.2693336050
  C        14.8753257323        8.5632868859        4.4566628257
  C        42.9465292572       31.9616019616       13.8039029333
  C        43.6918713151       30.8854784536       13.0905436638
  C        44.6561167601       31.1914124298       12.1179047005
  C        45.2776893512       30.1718445122       11.4001981950
  C        44.9542915555       28.8214864900       11.6381412480
  C        44.0212804276       28.5238052997       12.6493643734
  C        43.3929838232       29.5405486379       13.3615331974
  C        45.5632602352       27.7240961226       10.8528555654
  C        45.5333753214       27.7173771810        9.4315596391
  C        44.8270325273       28.7075857561        8.6785922772
  C        35.1425174357       26.6277800223        8.7287513470
  C        35.1347695550       26.6004495503       11.5384778292
  C        18.1486152299        3.2471089473       13.7014416498
  C        17.4301025458        4.3438850766       12.9921858764
  C        16.4148221865        4.0526450803       12.0686637902
  C        15.7665734698        5.0833057375       11.3932905090
  C        16.1213325791        6.4285323443       11.6159815653
  C        17.1128284661        6.7118726690       12.5731334735
  C        17.7604551270        5.6829430719       13.2529047973
  C        15.4908065957        7.5242096041       10.8435582512
  C        15.4966589983        7.5075220513        9.4224307468
  C        16.1934203681        6.5058217694        8.6757297412
  H        10.6723332478       12.4652302524       11.9000924971
  H        11.6946279486       10.5504104680       10.6582263304
  H        15.3923442696       11.1696235179       12.7661581520
  H        14.3518638911       13.0723997212       14.0112979031
  H        13.3761845002       11.6311351077        9.1962793230
  H        50.3229299415       22.7483086410       11.9816247862
  H        49.3198013145       24.6228200608       10.6756159605
  H        45.6424960833       24.1614018448       12.8588439633
  H        46.6635035634       22.2904051399       14.1671051237
  H        47.6297906042       23.5758432739        9.2411604195
  H        14.8725644788        8.5885459203       12.6034734445
  H        50.2872529227       22.7026567205        4.0655935609
  H        49.2692947745       24.5755769615        5.3656424678
  H        45.6107368291       24.1093959040        3.1511720553
  H        46.6529100374       22.2539587065        1.8369447753
  H        47.6077411326       23.5518191034        6.8019789768
  H        40.6586812277       17.1313827728        3.4283672624
  H        48.6872082381       14.0949274614       15.7949893952
  H        10.6813011047       12.4661817695        4.0978604953
  H        11.6896792323       10.5242722102        5.3015662932
  H        15.3942426353       11.1599932675        3.2116417546
  H        14.3656468589       13.0883538514        1.9963930441
  H        13.3758924567       11.6221505317        6.7582432689
  H        47.9302647078       14.2184507642        1.7159896935
  H        47.7801228647       14.3736968442       14.4902673622
  H        49.0845254317       18.5525519274        2.8727876465
  H        10.4163607541       14.1342198136        0.0038108189
  H        24.4868508619        3.0313467573       11.9131532367
  H        25.6282877551        4.8916636463       10.6901417779
  H        23.2529868005        7.7562416600       12.8466076995
  H        22.1295846992        5.8863549306       14.0711585671
  H        23.8142864646        5.7939514236        9.2667921044
  H        36.3774102875       32.1827348321       11.9605413397
  H        35.2596150615       30.3541865554       10.6796098786
  H        37.5309639015       27.4377764013       12.8793522611
  H        38.6286932504       29.2791035490       14.1687395565
  H        37.0393813601       29.4437934824        9.2656512200
  H        25.7410990986        8.6174151845       12.6488976404
  H        36.4587885991       32.2423884469        4.1176152725
  H        35.3472281424       30.4234841090        5.4130687536
  H        37.5266129060       27.4881662127        3.1450884456
  H        38.6132629645       29.3189745259        1.8377897404
  H        37.0540133652       29.4656016813        6.8270968048
  H        46.1098342181       26.5878057844        3.3907613419
  H        44.6683679638       35.1162623998       15.8088263358
  H        24.4324674661        3.0397873318        4.0962457962
  H        25.5620842515        4.8788059470        5.3489591822
  H        23.1654425857        7.7680218751        3.2501600958
  H        22.0473311487        5.9170789264        1.9973957954
  H        23.7901425733        5.7932104102        6.8286808108
  H        44.9541551098       34.3906470886        1.7004165545
  H        44.9020501214       34.2069246144       14.4855182875
  H        40.6665012326       33.2095115716        2.8583930592
  H        23.1504459482        1.9581679760        0.0104975597
  H        25.8357400376       19.6281764176       11.8902200201
  H        23.6617242460       19.6797789318       10.6600259388
  H        22.3464540110       16.2257628703       12.8596896620
  H        24.5213379996       16.1940566589       14.0892274665
  H        23.7237806036       17.6536843855        9.2408052323
  H        35.1847401647       15.4730141642       12.0622316295
  H        37.2886700704       15.4293963667       10.7168630613
  H        38.7106210393       18.8823865165       12.8516241417
  H        36.5964131753       18.9139739992       14.1925309107
  H        37.2332745588       17.4015111499        9.2445964928
  H        20.3627484041       17.9804999596       12.6646419079
  H        35.2081280754       15.4567200878        4.0738260222
  H        37.3419859844       15.4074850100        5.3747086093
  H        38.7392385666       18.8389277569        3.1897100721
  H        36.6020754396       18.8664316806        1.8848383459
  H        37.2487787868       17.3971806517        6.8004407625
  H        35.1458122135       26.6864780937        3.3977673325
  H        28.5094117461       21.0831381910       15.9719508670
  H        25.7516594626       19.6288866689        4.1643949175
  H        23.5679080944       19.6793550954        5.3818518907
  H        22.2986886383       16.1767754727        3.2332882152
  H        24.4829887174       16.1478002823        2.0126512773
  H        23.7007369265       17.6392297925        6.7988962022
  H        29.0010781292       21.7206813720        1.7700062985
  H        29.1522956660       21.7466790415       14.6148228456
  H        32.0961817971       18.5749814095        2.9904158464
  H        27.3981822465       19.0637405232        0.0861397328
  H        14.8484995889       19.6442794628        4.1498941421
  H        17.0104934589       19.6874940178        5.3938533428
  H        18.3022731314       16.1853764016        3.2574759121
  H        16.1361948991       16.1575400828        2.0133254236
  H        16.9214640791       17.6902905259        6.8564188351
  H        46.0947671571       15.4547494921        4.0836466744
  H        43.9714697919       15.4126068147        5.3966641809
  H        42.5640100948       18.8385043411        3.2086567879
  H        44.6875426511       18.8555728026        1.8861301354
  H        44.0339138242       17.3666255246        6.8431995504
  H        20.2888394559       17.9187485580        3.4273988767
  H        46.0394703521       15.3949720998       12.0260944466
  H        43.9078626589       15.3490139922       10.7278153249
  H        42.5324006807       18.8116644164       12.8767841047
  H        44.6703953917       18.8441392547       14.1751233152
  H        44.0186223848       17.3461641890        9.2836297337
  H        46.1997894544       26.6827574898       12.6183003181
  H        52.7413106648       21.0626388733        0.1998094223
  H        14.8809148177       19.6734883446       11.8898753241
  H        17.0820512948       19.7467223541       10.7113878794
  H        18.3396043744       16.2341544661       12.8503004871
  H        16.1403676698       16.1843696993       14.0381163865
  H        16.9441950573       17.7078985384        9.2935912423
  H        52.3227379794       21.6733390739       14.2890394935
  H        52.0133602811       21.7021302236        1.5007294788
  H        49.0684175226       18.6079858880       13.1988714276
  H        13.2479803728       19.0159431362       15.9722678611
  H        29.9504464371       12.4466616670        4.2285670033
  H        28.8815546860       10.5176223553        5.4044518977
  H        25.2429997353       11.2063052719        3.2182217748
  H        26.3306964552       13.1244602602        2.0363730020
  H        27.1704030190       11.6715786922        6.7961074185
  H        30.9950854646       22.7833636845        4.0139716005
  H        32.0078156991       24.6609043657        5.3143251119
  H        35.6970357801       24.1411519671        3.1651765842
  H        34.6640050123       22.2706635837        1.8611319082
  H        33.6816370766       23.5805336830        6.7556130658
  H        25.7008389498        8.5951913442        3.4126289504
  H        30.9301232662       22.7570027012       11.9716584702
  H        31.9671817309       24.6016022178       10.6501211947
  H        35.6359523342       24.0918256785       12.8367689203
  H        34.5846803891       22.2416888181       14.1527474545
  H        33.6625802929       23.5616030919        9.1999881571
  H        40.6048132306       17.1198977619       12.6554752445
  H        32.5334130984       14.1364568848        0.2786355076
  H        29.8956681659       12.5347510438       11.9275440483
  H        28.8690748414       10.6322383712       10.6699068346
  H        25.1992639879       11.1903202673       12.8421951641
  H        26.2460577842       13.0785663769       14.1044006056
  H        27.1679793831       11.6876598397        9.2375673471
  H        33.2754088132       14.1365158201       14.3944710306
  H        33.4079179323       14.4174252788        1.6280071760
  H        32.1754706745       18.5784957919       13.2171773949
  H        30.2311243005       14.1846292265        0.0834130915
  H        16.1183441513        2.9635571079        4.1347702852
  H        14.9533325430        4.8207403215        5.3275005941
  H        17.3667282326        7.6860952935        3.2153442584
  H        18.5153298666        5.8185471486        2.0155922042
  H        16.7538997410        5.7397683979        6.7766338273
  H        44.8277748304       32.1404416600        3.9826476094
  H        45.9371277915       30.3416253021        5.3120581056
  H        43.6835864542       27.3781974534        3.1569110159
  H        42.6007642074       29.1900552767        1.8142932260
  H        44.2305307429       29.4368303707        6.7741189929
  H        14.8517360338        8.5466702541        3.3684372421
  H        44.8994065609       32.2341116430       11.9262218061
  H        46.0243685053       30.4131279625       10.6467528105
  H        43.7648204124       27.4840269750       12.8413289527
  H        42.6469312078       29.3177338080       14.1204091471
  H        44.2686133556       29.4705399081        9.2131696660
  H        35.0945482539       26.6116139759       12.6260450633
  H        36.6051655726       35.1341475190        0.1857128560
  H        16.1436440045        3.0130915402       11.8989726563
  H        14.9741814910        4.8565411347       10.6832557576
  H        17.3964911033        7.7473147247       12.7499336176
  H        18.5434830585        5.8934155266       13.9774976593
  H        16.7649620154        5.7556559973        9.2141531205
  H        36.2784706028       34.4827493966       14.2678249037
  H        36.3809229863       34.2092460031        1.5046740048
  H        40.5811065982       33.2032236631       13.1480642177
  H        17.4708585818        1.9478638481       15.9690202166
  H        29.0752082367       19.2510165114        4.5482927848
  H        30.0836045808       19.8428812715       11.6676011138
  H        32.2282475074       16.0426560989       11.4664458080
  H        31.2962062024       15.4950686020        4.5550536374
  H        28.0636534285       18.1086256899        6.6286770911
  H        29.5879983581       15.1144364241        6.6330335272
  H        31.3960156965       20.3910487601        9.4871500102
  H        32.4158302872       17.7202417594        9.7660377559
  H        28.6385658713       16.8992507140        8.9427595339
  H        18.8531888055        0.8688293223        4.3403897567
  H        40.5279853288       35.2289489598       11.9468133617
  H        42.3250319506       34.4198374332       11.5847301178
  H        22.0875072957        0.6921044260        4.3568878057
  H        11.5970478478       18.7129010474        4.3876934742
  H        52.2650359780       18.4312567648       11.6720462928
  H        49.2552727119       16.4767623392       11.5794297178
  H        10.1503065806       15.7982565663        4.2979596578
  H        50.8502477804       17.6923916465       11.9491067581
  H        10.0462962467       17.3945537310        4.0570417429
  H        20.2144687774        0.0021361190        4.0471169411
  H        39.1837890751       36.1245862752       11.6814457710
 Ni        30.1811177550       17.6342404536       10.9053624359
 Ni        31.1092738777       16.3572866059        8.2424490794
 Ni        30.0065834666       18.9486987372        7.9952589277
 Ni        30.2674995079       17.4295195900        5.3307934333
  O        10.6500323984       14.3650510034       13.4807244956
  O        12.6132267270       14.6574967588       14.5787982429
  O        49.1482876078       16.8457985589       15.9846912730
  O        50.3503455830       20.9357783553       13.6428750986
  O        48.3486152247       20.5934021865       14.6608094217
  O        11.0520592146       17.0536880539       14.4956212965
  O        50.3210950815       20.8816977363        2.4120022451
  O        48.3467768646       20.5868719535        1.3323433753
  O        49.5439390988       18.2484182705        2.0734059586
  O        12.3592865140       18.6246545863        0.0047826146
  O        48.6932978531       14.1485034554       14.7462356972
  O         8.2099305873       14.2103439592        1.3276149625
  O        10.7354290030       14.5067025979        2.6694395793
  O        12.5718573980       14.5828120352        1.3335974797
  O        22.8446408398        2.0434009493       13.4820598854
  O        21.6057150187        3.5924223731       14.5844412053
  O        42.0584241880       34.1376406193       15.9738655915
  O        37.9818160991       33.1375691114       13.5672969411
  O        39.2186149522       31.5763531521       14.6620588319
  O        20.3084952079        1.0397831323       14.4970621053
  O        38.0248328007       33.1861832446        2.4201552071
  O        39.2193909143       31.5839612529        1.3313029105
  O        40.6523877017       33.7695032799        2.0653120891
  O        18.2553867789        1.3764651888        0.0018441684
  O        44.6222239711       35.1005713656       14.7536524810
  O        24.2054147689        0.0000140841        1.3258723406
  O        22.7529797149        2.0577036738        2.5889806077
  O        21.6245427129        3.5961298927        1.3479676092
  O        27.4937905660       18.7502108281       13.4970836814
  O        26.7665908063       16.9300122053       14.6524821956
  O        30.6689795733       19.4051706539        0.0755191700
  O        33.6296383745       16.3342520208       13.7400449878
  O        34.3103863367       18.2517264824       14.7440402561
  O        29.5877037260       17.0572125474       14.5706407294
  O        33.6169484196       16.3284381732        2.4192616949
  O        34.3053731320       18.2467114276        1.4137687096
  O        31.6555865829       18.3106323895        2.1663102243
  O        30.3281871036       15.1511841137        0.1000549012
  O        28.5536606039       21.0334448526       14.9004231098
  O        28.5135754934       20.9565805255        1.4182856609
  O        27.4557774030       18.6787044015        2.6645099947
  O        26.6945965755       16.9282397680        1.4177997227
  O        13.1488207569       18.6928565307        2.5925867078
  O        13.9194018595       16.9162478156        1.4101587337
  O        50.5967307217       19.3503554113        0.0256282142
  O        47.6839295865       16.3268298677        2.4222771252
  O        46.9525210947       18.1760209089        1.3292642884
  O        11.0700910774       17.0154029001        1.4947330961
  O        47.6765081076       16.3352060145       13.6479154692
  O        46.9304209504       18.2356820520       14.6608970132
  O        49.5691427913       18.3176902026       13.9772408453
  O        10.3187642446       15.1000434526        0.0021774085
  O        52.6708047444       21.0278835653        1.2469262929
  O        12.1468688152       20.8911960351       14.6681515483
  O        13.1085522102       18.6135611022       13.3204472921
  O        13.9574216403       16.9871314348       14.6602319155
  O        29.9918996141       14.4400534720        2.7373784537
  O        28.0892598485       14.6541291442        1.4995666591
  O        32.1440880449       16.8552530192        0.1032234420
  O        30.9655022271       20.9529645625        2.4158520553
  O        32.9470721565       20.6036002101        1.3469509704
  O        29.5713240751       17.0719836441        1.5813149438
  O        30.8757806206       20.9510775166       13.6579345202
  O        32.8781236160       20.5870673471       14.6626089706
  O        31.6842596258       18.2393347235       13.9814976725
  O        28.2873626485       18.6736632074        0.0847627606
  O        32.4962535670       14.2140278778        1.3463943812
  O        32.4123043239       14.2013299009       14.8355450730
  O        29.9111483410       14.4391029526       13.4944348462
  O        28.0337473349       14.5918269154       14.7569218777
  O        17.8892811036        1.9666910278        2.6679002061
  O        18.9562506635        3.5271528423        1.4130521208
  O        39.1686724200       34.1389515110        0.0022966344
  O        43.2802451113       33.0590078516        2.3368289014
  O        42.0345857098       31.5064765234        1.2467583807
  O        20.3178404383        1.0369692286        1.4851358744
  O        43.2760251842       33.1825277654       13.5697622177
  O        42.0052635468       31.5840617818       14.5778891006
  O        40.5790427704       33.7751469663       13.9307181151
  O        22.3674498101        1.3847474983        0.0029916278
  O        36.6727602044       35.0998537131        1.2383479642
  O        16.4456292990        0.0642990540       14.6631654218
  O        17.9365251424        2.0433762549       13.3212979480
  O        18.9190774080        3.5931202149       14.6608116334
  O        29.7824418692       19.0489373541       12.1498157470
  O        29.8040075477       18.8896209119        4.0042965423
  O        31.7301123928       15.5311948926       12.1583684808
  O        31.3476304333       16.3424841015        4.0720395514
  O        31.9810281897       16.8609076373        9.9140942232
  O        29.5179386293       17.2957444847        9.0633089061
  O        30.3743154456       15.6804788227        6.5807412344
  O        31.4335862592       17.9533818414        6.9875305281
  O        30.7923299423       19.6370204381        9.5720160215
  O        28.9081030622       18.5424500346        6.4301046587
  O        39.4567878442       35.2438495488       11.9968617554
  O        19.1410807299        0.0043426017        3.9956499184
  O        41.9695253474       35.1727102958       12.0820448441
  O        21.6912114469       -0.0693045232        3.9010990224
  O        51.3652118546       18.6142961186       12.0002852177
  O        10.7512710675       18.7471833865        3.9100836469
  O        50.0797374982       16.4127846886       12.0866369534
  O         9.5245044085       16.4831285840        3.9963279713
 Zr         9.2976416695       16.0525898979       14.1774906922
 Zr        49.8370307446       16.0065183326        1.7514040208
 Zr        22.0735586078        0.0305550030       14.1837001240
 Zr        42.4612241344       35.1540521278        1.8062713341
 Zr        29.5932328822       19.0981160863       14.2939500495
 Zr        29.5747195238       19.1707510839        1.8868991898
 Zr        11.0388276010       19.0517135738        1.8329364924
 Zr        11.0447724776       19.1545749378       14.2457352313
 Zr        31.3439119082       16.1003931988        1.9178754574
 Zr        31.4310466659       15.9895726198       14.3520357787
 Zr        18.6015008874       -0.0004761333        1.7682567472
 Zr        18.5067741785       -0.0070117865       14.2087618045
 Zr        12.3029877643       16.3236341222       15.9851588137
 Zr        48.6179209846       18.8332513166        0.0156531918
 Zr        20.3156412259        2.4743338315       15.9853583351
 Zr        40.6442975964       32.6879289353       15.9731878880
 Zr        28.3423726932       16.3430753759        0.0795716177
 Zr        32.6284524111       18.8458427197        0.0732536446
  H        32.3134163610       18.3592812486        6.9156179712
  H        30.7803866283       15.6129969057       11.8096705520
  H        29.5435003483       16.3621381962       11.5333566425
