     574
 i =      194, E =     -4778.8797383447
  C        11.8588340219       14.0536484209       13.7363969749
  C        12.4563837631       12.8907585644       13.0180001462
  C        11.7045692519       12.1716110941       12.0766127077
  C        12.2809285794       11.1093706823       11.3842961567
  C        13.6215879585       10.7397941889       11.6118387884
  C        14.3549055058       11.4436221023       12.5849918261
  C        13.7820449973       12.5086566249       13.2764416295
  C        14.2610748497        9.6490666930       10.8384877239
  C        14.2564329180        9.6569732899        9.4167897095
  C        13.7433357838       10.7591396450        8.6628973442
  C        49.1268827694       21.2331635656       13.8745086593
  C        48.5501352200       22.4011450799       13.1474348387
  C        49.3002331331       23.0685560832       12.1665588929
  C        48.7333344168       24.1077479802       11.4333971889
  C        47.4027931505       24.5093789518       11.6620127323
  C        46.6717809789       23.8604376212       12.6754369521
  C        47.2342098862       22.8154929189       13.4047479971
  C        46.7725118723       25.5870459448       10.8647287846
  C        46.7615008086       25.5574386310        9.4429658011
  C        47.2614618626       24.4423481876        8.6994824018
  C        14.8603089103        8.5705896484        8.7035459636
  C        14.8917155121        8.5970612252       11.5151586589
  C        49.1132730002       21.2034486496        2.1504982161
  C        48.5278693865       22.3647878981        2.8777229386
  C        49.2671467878       23.0255998247        3.8705245980
  C        48.6908138260       24.0601625178        4.6019828389
  C        47.3603534738       24.4568252063        4.3638383370
  C        46.6398755626       23.8118181480        3.3404239493
  C        47.2134465046       22.7759122600        2.6086517183
  C        46.7218993170       25.5318099639        5.1548415646
  C        46.7336387726       25.5281938966        6.5765434626
  C        47.2491738751       24.4290299417        7.3329297843
  C        40.6326314004       17.1454901356        7.3295471608
  C        40.6523132074       17.1792381164        4.5207385462
  C        11.8830623702       14.0866018733        2.2905826055
  C        12.4724393838       12.9108425661        2.9949121869
  C        11.7148293116       12.1774609870        3.9207934840
  C        12.2814147358       11.0949974366        4.5892121160
  C        13.6203070635       10.7214516063        4.3575618282
  C        14.3584042195       11.4372341285        3.3970284062
  C        13.7929831913       12.5184217365        2.7243486855
  C        14.2538719342        9.6246557399        5.1279574367
  C        14.2526321947        9.6446285610        6.5497956081
  C        13.7428075498       10.7536129134        7.2968497764
  C        22.5106774097        3.2449742873       13.7473265872
  C        23.2221838131        4.3517260747       13.0460898822
  C        24.2201067906        4.0739857188       12.1003095372
  C        24.8440936394        5.1149743543       11.4175501098
  C        24.4857979709        6.4559479519       11.6603488067
  C        23.5156225576        6.7253684576       12.6427892786
  C        22.8871557061        5.6861332116       13.3239960070
  C        25.0897035186        7.5631978880       10.8840946379
  C        25.0645257535        7.5537462040        9.4624558795
  C        24.3635902278        6.5532392996        8.7166024659
  C        38.3053954798       31.9288387390       13.8428606598
  C        37.5839182506       30.8361165982       13.1311173226
  C        36.6259197954       31.1330142312       12.1499695047
  C        36.0186991543       30.1076531411       11.4304101718
  C        36.3551952486       28.7610897200       11.6709474979
  C        37.2837134732       28.4716437781       12.6882853718
  C        37.8949409417       29.4954888264       13.4065393796
  C        35.7606291031       27.6649290314       10.8747805396
  C        35.7889791029       27.6800562803        9.4536363996
  C        36.4902325327       28.6847563263        8.7151063810
  C        25.6888408149        8.6222452134        8.7415949053
  C        25.6831803747        8.6410468031       11.5538776410
  C        38.3285731781       31.9617489711        2.1606741564
  C        37.6079785457       30.8867335154        2.9004993346
  C        36.6818480609       31.1915335303        3.9096608384
  C        36.0756746663       30.1700042334        4.6383144023
  C        36.3813908063       28.8185566078        4.3809741081
  C        37.2837558649       28.5238065279        3.3407316863
  C        37.8922067445       29.5416767753        2.6135650512
  C        35.7801166153       27.7163141439        5.1656847983
  C        35.7987284981       27.7066647626        6.5874262506
  C        36.4947783110       28.6975489014        7.3486312349
  C        46.1356342598       26.6208362408        7.2866707212
  C        46.0878915851       26.5801266410        4.4787761316
  C        22.4601832171        3.2552508134        2.2619393560
  C        23.1535836974        4.3643701493        2.9842699442
  C        24.1574364166        4.0789702292        3.9231906572
  C        24.7846595242        5.1097855617        4.6185929610
  C        24.4277348020        6.4548508886        4.3970084385
  C        23.4469484406        6.7336463952        3.4265473147
  C        22.8150983342        5.7030420398        2.7317200842
  C        25.0576529592        7.5531887447        5.1708678383
  C        25.0489014657        7.5477571633        6.5934289826
  C        24.3541667491        6.5516236076        7.3499430188
  C        26.6198504963       17.8542476536       13.7801590353
  C        25.3135926282       17.8990747719       13.0552653725
  C        25.0737749128       18.8769544683       12.0771343078
  C        23.8599357620       18.9034767716       11.3928366466
  C        22.8529319490       17.9528980962       11.6594995192
  C        23.0924904075       16.9963211971       12.6643802514
  C        24.3062234435       16.9664572723       13.3497914873
  C        21.5798888596       17.9402253117       10.8948907693
  C        21.5785133472       17.9125295528        9.4721121983
  C        22.7827766465       17.7805078799        8.7109044141
  C        34.4402579228       17.1987302384       13.9186420489
  C        35.7333017672       17.1478177867       13.1758394462
  C        35.9381627282       16.1780279937       12.1816395932
  C        37.1170704622       16.1683355568       11.4414834578
  C        38.1231688383       17.1253035320       11.6782200144
  C        37.9213438425       18.0740890147       12.6983217053
  C        36.7389869465       18.0907042878       13.4343767115
  C        39.3775088239       17.1351838085       10.8923776771
  C        39.3738402822       17.1565186462        9.4711447997
  C        38.1673669966       17.2848623240        8.7133741545
  C        20.3316852365       17.9325974860        8.7637433966
  C        20.3544228226       17.9476180092       11.5767643754
  C        34.4724453891       17.2476832159        2.1885924960
  C        35.7737510368       17.1783941809        2.9147353137
  C        35.9901131420       16.1962812883        3.8926286507
  C        37.1763042009       16.1812011165        4.6206560316
  C        38.1742164401       17.1476687656        4.3896496134
  C        37.9640442743       18.1055507330        3.3805630889
  C        36.7756050188       18.1256439614        2.6556342825
  C        39.4211072856       17.1671623230        5.1848257892
  C        39.3962884991       17.1743137042        6.6056891768
  C        38.1779385844       17.2917795437        7.3466857870
  C        35.1740485072       26.6250200960        7.2926074898
  C        35.1878241349       26.6461716019        4.4836596613
  C        26.5721841103       17.8253717416        2.3324120535
  C        25.2568897004       17.8716163995        3.0381762204
  C        24.9934567436       18.8748650579        3.9830561863
  C        23.7755528558       18.8997471968        4.6570249392
  C        22.7913533858       17.9219199765        4.4089330138
  C        23.0489912325       16.9442194813        3.4309783867
  C        24.2678223021       16.9168331997        2.7559070542
  C        21.5276150596       17.9031188956        5.1817324283
  C        21.5516891651       17.8927728087        6.6031980079
  C        22.7697442762       17.7718144393        7.3447453766
  C        14.0467247309       17.8288622578        2.2942114254
  C        15.3507249611       17.8859585484        3.0199270359
  C        15.6066836188       18.8887518261        3.9682334683
  C        16.8153436429       18.9096679519        4.6616509349
  C        17.8024700347       17.9306070692        4.4291183488
  C        17.5512397799       16.9521477059        3.4486149816
  C        16.3420893386       16.9266270277        2.7566895009
  C        19.0715123930       17.9134623658        5.1981754427
  C        19.0705462449       17.9115293168        6.6207760362
  C        17.8637551762       17.8155614090        7.3826955800
  C        46.8061931077       17.2205139688        2.1652145361
  C        45.5181021152       17.1646743271        2.9140291707
  C        45.3111588256       16.1915988360        3.9038332869
  C        44.1309374422       16.1808511396        4.6424232198
  C        43.1284840461       17.1433115308        4.4125942198
  C        43.3329713747       18.0962972168        3.3966454183
  C        44.5137840960       18.1110182417        2.6592594106
  C        41.8756221204       17.1602894842        5.2007181587
  C        41.8801322673       17.1577286389        6.6224157643
  C        43.0885244960       17.2484699076        7.3824739599
  C        20.3175640200       17.9211372102        7.3287717591
  C        20.2954422555       17.8931628875        4.5154437442
  C        46.7856983295       17.2304576240       13.8856954581
  C        45.4813260799       17.1240763210       13.1732786150
  C        45.2628746051       16.1289675833       12.2087246779
  C        44.0744290672       16.1048372847       11.4832838379
  C        43.0757715418       17.0724258729       11.7063853231
  C        43.2837459392       18.0357415169       12.7109583573
  C        44.4734783220       18.0666785697       13.4309461507
  C        41.8308584102       17.1005217281       10.9084725801
  C        41.8575169612       17.1250489162        9.4879257175
  C        43.0778675569       17.2305791055        8.7488413432
  C        46.1533928421       26.6372663624        8.7212162121
  C        46.1625391847       26.6561505434       11.5308565229
  C        14.0463442789       17.8326927387       13.7040332955
  C        15.3679713219       17.9095177229       13.0148723380
  C        15.6403553324       18.9254945122       12.0864614464
  C        16.8696145344       18.9649433563       11.4320986577
  C        17.8545337271       17.9876035276       11.6800757299
  C        17.5892156060       17.0011196441       12.6473775445
  C        16.3619932348       16.9611050597       13.3052807187
  C        19.1216753312       17.9630138990       10.9104061598
  C        19.0967276357       17.9358541435        9.4888847338
  C        17.8766217839       17.8265829402        8.7487206397
  C        28.8100532605       14.0917085559        2.3930567013
  C        28.1940319982       12.9192956724        3.0817521400
  C        28.9217190122       12.1654047635        4.0142965640
  C        28.3210488028       11.0908480406        4.6657390993
  C        26.9791976643       10.7457123726        4.4068574759
  C        26.2725965245       11.4799370298        3.4378219974
  C        26.8708332766       12.5553596024        2.7857981610
  C        26.3102063520        9.6650791989        5.1672922148
  C        26.2983013583        9.6913553196        6.5879513512
  C        26.8057314538       10.8032094989        7.3323299092
  C        32.1790683587       21.2369207051        2.1508747436
  C        32.7793038492       22.3984346549        2.8711414892
  C        32.0358081800       23.0758076639        3.8496604886
  C        32.6111324360       24.1130501380        4.5771670814
  C        33.9451214741       24.5005431374        4.3460836998
  C        34.6711249901       23.8416074848        3.3362825197
  C        34.0983765817       22.7986345678        2.6110531436
  C        34.5785477664       25.5742488790        5.1447010731
  C        34.5787934127       25.5424020375        6.5661625812
  C        34.0723576884       24.4265704288        7.3048124614
  C        25.6859971943        8.6154303749        7.3072500772
  C        25.6730401262        8.6149533874        4.4940856239
  C        32.1138971114       21.2325230284       13.8839881388
  C        32.7137974532       22.3769615721       13.1379043375
  C        31.9837694649       23.0430826231       12.1411246847
  C        32.5738883261       24.0644879837       11.4007831861
  C        33.9069067420       24.4511816143       11.6400504131
  C        34.6200596349       23.7994378097       12.6644989791
  C        34.0354732430       22.7710931061       13.3990730932
  C        34.5518337399       25.5282514707       10.8542726305
  C        34.5636740876       25.5192693416        9.4324034851
  C        34.0634018799       24.4161451142        8.6714754903
  C        40.6208860032       17.1324369341        8.7635127823
  C        40.5999386388       17.1238471661       11.5730082386
  C        28.7138463278       14.1001080688       13.7783814872
  C        28.1062916501       12.9524362858       13.0426370823
  C        28.8518914076       12.2330029037       12.0960333680
  C        28.2730896122       11.1692341095       11.4079482164
  C        26.9336249523       10.7987262366       11.6418197010
  C        26.2047569868       11.5058924654       12.6160477970
  C        26.7819970667       12.5693879673       13.3070646054
  C        26.2957957510        9.7018517203       10.8746184853
  C        26.2921608672        9.7104007022        9.4531952213
  C        26.8000956718       10.8138302502        8.6979144246
  C        18.1353075566        3.1809509913        2.3222867079
  C        17.4059325479        4.2781632695        3.0208251937
  C        16.3904733554        3.9997810292        3.9486283307
  C        15.7427287634        5.0397569167        4.6121080225
  C        16.0943738321        6.3835101529        4.3721834140
  C        17.0834029277        6.6530449178        3.4080516861
  C        17.7325021518        5.6157159148        2.7430049332
  C        15.4701381255        7.4912229718        5.1352463875
  C        15.4854366271        7.4905223234        6.5569586577
  C        16.1869376639        6.4968848764        7.3101518639
  C        42.9459821573       31.8594720268        2.0780480490
  C        43.6463258310       30.7718660145        2.8220251515
  C        44.5919433288       31.0931592512        3.8080309772
  C        45.1976096779       30.0875948888        4.5556937669
  C        44.8710917092       28.7345420219        4.3408762659
  C        43.9451781511       28.4202296322        3.3277381757
  C        43.3363893854       29.4253848911        2.5797057409
  C        45.4886837667       27.6552469188        5.1440539572
  C        45.4928507578       27.6809071908        6.5657416944
  C        44.8057164270       28.6889291736        7.3123570293
  C        14.8565659900        8.5630672749        7.2693258509
  C        14.8749411321        8.5630539136        4.4566621963
  C        42.9465075596       31.9615654235       13.8038844663
  C        43.6917675015       30.8855029062       13.0904206139
  C        44.6562830855       31.1914078137       12.1180359844
  C        45.2778159891       30.1718178183       11.4003350069
  C        44.9541156247       28.8214877941       11.6380351805
  C        44.0206747849       28.5238287240       12.6488581083
  C        43.3924014162       29.5405949588       13.3610139624
  C        45.5631532946       27.7240945460       10.8527953830
  C        45.5334255462       27.7174240234        9.4315014039
  C        44.8269897367       28.7075720076        8.6785428729
  C        35.1679589944       26.6121199848        8.7271508441
  C        35.1622576652       26.5870281564       11.5368103117
  C        18.1484218405        3.2469275402       13.7014709368
  C        17.4297356959        4.3437391101       12.9922948904
  C        16.4147255642        4.0524599812       12.0685053975
  C        15.7664099340        5.0830989624       11.3931395717
  C        16.1208846786        6.4283594680       11.6160470837
  C        17.1119864517        6.7117402744       12.5735997678
  C        17.7596510141        5.6828293944       13.2533558028
  C        15.4904743635        7.5240738752       10.8435857353
  C        15.4964197855        7.5074388956        9.4224540450
  C        16.1931337244        6.5057048154        8.6757555627
  H        10.6723529080       12.4655763455       11.8998205484
  H        11.6945724633       10.5506952582       10.6579580249
  H        15.3920426634       11.1692630296       12.7664713636
  H        14.3516224480       13.0721648874       14.0115754353
  H        13.3763725899       11.6312761850        9.1962291433
  H        50.3229629208       22.7485508678       11.9818642835
  H        49.3198691513       24.6230741784       10.6758968054
  H        45.6422805096       24.1611985598       12.8585847608
  H        46.6631951899       22.2902123811       14.1668084566
  H        47.6300992123       23.5760199214        9.2411801122
  H        14.8720052175        8.5883455235       12.6034647539
  H        50.2872493620       22.7028586573        4.0653233095
  H        49.2692605020       24.5757139083        5.3653837709
  H        45.6104348400       24.1089923246        3.1514405266
  H        46.6526132862       22.2536926931        1.8371391557
  H        47.6080029074       23.5519292755        6.8020330832
  H        40.6587464801       17.1475281601        3.4329161214
  H        48.6870897847       14.0950127386       15.7949179925
  H        10.6812779501       12.4663854880        4.0979833074
  H        11.6895530275       10.5244210321        5.3017061872
  H        15.3939266481       11.1595461782        3.2113109293
  H        14.3654231823       13.0880178798        1.9960699453
  H        13.3760372974       11.6222359347        6.7581812780
  H        47.9301895122       14.2185968805        1.7160731315
  H        47.7801807496       14.3740808182       14.4901699724
  H        49.0844322124       18.5526815020        2.8727546177
  H        10.4161461926       14.1343160542        0.0038235122
  H        24.4845201744        3.0360559938       11.9105811604
  H        25.6182544655        4.8992540694       10.6843574660
  H        23.2310254935        7.7575145085       12.8364550256
  H        22.1159746193        5.8846345578       14.0642717656
  H        23.8018040388        5.7970700885        9.2572033230
  H        36.3820942068       32.1744448314       11.9536156430
  H        35.2748773311       30.3402876403       10.6715569123
  H        37.5505917220       27.4345213668       12.8805551727
  H        38.6376625308       29.2809740190       14.1711895805
  H        37.0559157834       29.4348752892        9.2600516542
  H        25.7143186110        8.6275929533       12.6418782301
  H        36.4584616722       32.2348735855        4.1208408212
  H        35.3525643302       30.4115189211        5.4142086717
  H        37.5309443822       27.4844338239        3.1349922718
  H        38.6121668060       29.3192753419        1.8298095352
  H        37.0650190235       29.4571169773        6.8216534540
  H        46.1092744102       26.5874890974        3.3907400118
  H        44.6681141923       35.1161340807       15.8088615332
  H        24.4366094988        3.0409745625        4.0893986607
  H        25.5667854420        4.8822798329        5.3397673343
  H        23.1602747816        7.7678593300        3.2470804277
  H        22.0418794936        5.9144952805        1.9967486850
  H        23.7844829154        5.7947652953        6.8185466615
  H        44.9534412573       34.3900095192        1.6999999094
  H        44.9013185316       34.2066826602       14.4855095584
  H        40.6656755699       33.2087363795        2.8581442763
  H        23.1502665077        1.9578239220        0.0099344910
  H        25.8539884552       19.6059472368       11.8682662314
  H        23.6773415043       19.6699531673       10.6426398089
  H        22.3276390806       16.2528461357       12.8795206544
  H        24.5005854946       16.2154001800       14.1119856436
  H        23.7228625402       17.6562494667        9.2404083736
  H        35.1563738716       15.4433356494       12.0017964508
  H        37.2769855568       15.4096591076       10.6783722726
  H        38.6911541694       18.8200677190       12.8848332180
  H        36.5655251177       18.8378195847       14.2055004886
  H        37.2284717018       17.4092897844        9.2453994441
  H        20.3613598334       17.9924052025       12.6644465567
  H        35.2096797603       15.4620550572        4.0776954689
  H        37.3443599788       15.4166276219        5.3759627756
  H        38.7286907671       18.8579241778        3.1986403612
  H        36.5906742082       18.8822202352        1.8967749717
  H        37.2470559362       17.4202555172        6.8017605422
  H        35.1532603506       26.6744354397        3.3962164316
  H        28.5053923243       21.0814811072       15.9697307529
  H        25.7557400008       19.6279163002        4.1701258176
  H        23.5708521557       19.6818733365        5.3849723050
  H        22.2971963316       16.1828807176        3.2330945493
  H        24.4827640371       16.1504012845        2.0150880417
  H        23.6998387394       17.6414257618        6.7997314755
  H        29.0156396325       21.7126510102        1.7618755726
  H        29.1526723778       21.7411481763       14.6127169622
  H        32.0789719066       18.5499437587        2.9919508545
  H        27.3709882177       19.0249570102        0.0884020900
  H        14.8479954117       19.6475331325        4.1464842909
  H        17.0100381073       19.6937470256        5.3902362463
  H        18.3029397996       16.1884468502        3.2597716615
  H        16.1368946692       16.1579097380        2.0154413145
  H        16.9207867531       17.7006095627        6.8561398691
  H        46.0920573823       15.4572837246        4.0871525459
  H        43.9702189530       15.4183446033        5.4013687887
  H        42.5669269032       18.8474077339        3.2155278366
  H        44.6886997331       18.8609613830        1.8914411882
  H        44.0306795125       17.3640525015        6.8542931260
  H        20.2890215933       17.9236645664        3.4273278558
  H        46.0403646329       15.3901090410       12.0283962974
  H        43.9073979764       15.3338230605       10.7342734546
  H        42.5168064299       18.7864992618       12.8895457423
  H        44.6568595092       18.8300555697       14.1830248192
  H        44.0118430368       17.3312386978        9.2940728170
  H        46.1994127961       26.6827021044       12.6183010683
  H        52.7412911063       21.0627192436        0.1998061058
  H        14.8787361547       19.6779657703       11.8941189091
  H        17.0795222376       19.7557235070       10.7150662767
  H        18.3410967205       16.2403961814       12.8470772017
  H        16.1421945931       16.1862936084       14.0357372166
  H        16.9432285380       17.7201509553        9.2932656815
  H        52.3228295634       21.6734441868       14.2890806174
  H        52.0134891898       21.7022550285        1.5007969427
  H        49.0677211969       18.6077059838       13.1989820667
  H        13.2479124582       19.0162824913       15.9723710704
  H        29.9567676208       12.4352187549        4.2121534261
  H        28.8862945996       10.5047781678        5.3872708489
  H        25.2356125605       11.2230634275        3.2313455024
  H        26.3237530354       13.1436754184        2.0531818071
  H        27.1736469116       11.6685764280        6.7894966530
  H        31.0110070001       22.7633729195        4.0350541466
  H        32.0300619486       24.6376107473        5.3325083155
  H        35.7036412441       24.1319128797        3.1530581817
  H        34.6640680917       22.2638953143        1.8515789742
  H        33.7119368566       23.5595566507        6.7586270875
  H        25.7019359496        8.5958229840        3.4060571005
  H        30.9552939122       22.7452457636       11.9503135724
  H        32.0010590294       24.5805340501       10.6334092890
  H        35.6518560499       24.0875582377       12.8549494907
  H        34.5910493670       22.2449625820       14.1719001909
  H        33.6952672196       23.5411074478        9.1995945409
  H        40.5920027017       17.0795882938       12.6604110581
  H        32.5210343241       14.1431933880        0.2663026484
  H        29.8886828284       12.5130317311       11.9224491224
  H        28.8582570082       10.6056707778       10.6844105144
  H        25.1682374296       11.2322500524       12.8023200988
  H        26.2173194873       13.1302769744       14.0481606932
  H        27.1622299517       11.6878853998        9.2311098828
  H        33.2781951816       14.1659309320       14.4056664241
  H        33.4085533523       14.4199401851        1.6105937844
  H        32.1302468836       18.5325952953       13.1156656612
  H        30.2309167247       14.1884835937        0.0750195785
  H        16.1185776865        2.9632644714        4.1352146803
  H        14.9534340159        4.8203364370        5.3279257100
  H        17.3655116004        7.6859510292        3.2146372833
  H        18.5142034522        5.8183930404        2.0148059869
  H        16.7534415479        5.7394933773        6.7766749443
  H        44.8283037175       32.1402282735        3.9821791213
  H        45.9375368215       30.3412920336        5.3115956770
  H        43.6823812348       27.3781759932        3.1576867690
  H        42.5996745209       29.1900501863        1.8151370308
  H        44.2302766450       29.4366289329        6.7740473491
  H        14.8511405086        8.5463140375        3.3684420374
  H        44.8997904108       32.2340872489       11.9265412499
  H        46.0246848521       30.4130185708       10.6470545813
  H        43.7637798190       27.4840941035       12.8404840980
  H        42.6459660402       29.3177776956       14.1195148865
  H        44.2684017836       29.4704048322        9.2131206973
  H        35.1213438350       26.5998423787       12.6243293751
  H        36.6049295928       35.1338849502        0.1858428936
  H        16.1437528735        3.0128793893       11.8986329602
  H        14.9741897804        4.8562391432       10.6829405929
  H        17.3952342667        7.7472367517       12.7507419085
  H        18.5422645342        5.8932952428       13.9783909697
  H        16.7644815221        5.7553982768        9.2141860060
  H        36.2780062605       34.4827048284       14.2679298588
  H        36.3802389825       34.2094715015        1.5051698133
  H        40.5806268878       33.2025982550       13.1483588242
  H        17.4706048095        1.9474739641       15.9689229976
  H        29.1590717723       19.3212121721        4.5292272191
  H        30.2023962161       20.0714926165       11.8437436475
  H        31.8569313201       16.1604789381       11.0803958970
  H        31.3713426514       15.6034493329        4.5424799074
  H        28.1621463211       17.8854429788        6.5012919987
  H        29.6286572865       15.3231585249        6.4345233013
  H        31.5120284257       19.4557899827        9.6707300522
  H        33.2023522048       16.2028588050        9.5429252358
  H        28.7562964502       16.6937596604        8.9681011426
  H        18.8525796504        0.8687708169        4.3402966400
  H        40.5277770220       35.2291599898       11.9469632258
  H        42.3241696839       34.4190014424       11.5854731884
  H        22.0876809616        0.6922722068        4.3566461794
  H        11.5968704289       18.7131601489        4.3876890738
  H        52.2650744021       18.4312381699       11.6722048277
  H        49.2551814950       16.4772497185       11.5795248314
  H        10.1510838019       15.7981795253        4.2974479854
  H        50.8502670893       17.6924495820       11.9491345893
  H        10.0465964548       17.3945953733        4.0570121911
  H        20.2137186948        0.0021372983        4.0472456909
  H        39.1834226871       36.1244273905       11.6814556804
 Ni        29.6291835419       18.1883482289       10.6594392196
 Ni        31.2431785665       16.4298385384        8.0783424521
 Ni        29.9609745671       18.8738209433        7.9120907088
 Ni        30.1421496115       17.3974463934        5.1629921835
  O        10.6499908665       14.3651107856       13.4807073001
  O        12.6132111351       14.6575279692       14.5788013797
  O        49.1480835220       16.8458867148       15.9846235392
  O        50.3502792692       20.9358441717       13.6429284805
  O        48.3485864070       20.5933322803       14.6607956296
  O        11.0518789573       17.0538224459       14.4956240757
  O        50.3210346128       20.8816622530        2.4119652376
  O        48.3467879642       20.5868021521        1.3322528214
  O        49.5437974966       18.2484273254        2.0733788403
  O        12.3593525368       18.6247026204        0.0047948970
  O        48.6932748049       14.1485368414       14.7462009456
  O         8.2098790070       14.2104273731        1.3277191604
  O        10.7354204618       14.5067269173        2.6694301835
  O        12.5718671468       14.5828173843        1.3335856260
  O        22.8449302377        2.0442310192       13.4819124230
  O        21.6051011996        3.5923525875       14.5848017925
  O        42.0582367795       34.1374218566       15.9738475265
  O        37.9820326367       33.1366527043       13.5671997407
  O        39.2193098853       31.5766989736       14.6626646046
  O        20.3083358492        1.0394573739       14.4968432664
  O        38.0245119920       33.1854129880        2.4203649164
  O        39.2195499942       31.5841179939        1.3311528810
  O        40.6522368185       33.7693507189        2.0654600148
  O        18.2554256482        1.3764795169        0.0018614427
  O        44.6222029426       35.1005781038       14.7536267136
  O        24.2054091174        0.0000028587        1.3259116592
  O        22.7529142672        2.0576572240        2.5887647280
  O        21.6240805646        3.5957247123        1.3470560127
  O        27.4909964527       18.7449814258       13.4960952956
  O        26.7646819194       16.9242091743       14.6502922750
  O        30.6480312411       19.3529242257        0.0621653786
  O        33.5872598042       16.2805110725       13.6612088035
  O        34.2731356977       18.1710937582       14.7324469610
  O        29.5814620033       17.0590402094       14.5653656403
  O        33.6152681427       16.3276084744        2.4165580468
  O        34.3038378074       18.2461913083        1.4097674478
  O        31.6584310696       18.3108513658        2.1485537945
  O        30.3258680602       15.1553065737        0.0815921695
  O        28.5526728989       21.0301335266       14.9012283509
  O        28.5141083466       20.9536466230        1.4180858639
  O        27.4587224554       18.6775815401        2.6661298032
  O        26.6934782358       16.9270023189        1.4208395048
  O        13.1486636710       18.6929689613        2.5925378422
  O        13.9194643729       16.9162975918        1.4102565675
  O        50.5964452551       19.3502520440        0.0255369084
  O        47.6831009209       16.3272228495        2.4225832862
  O        46.9521520777       18.1760694757        1.3293525375
  O        11.0699223714       17.0154727550        1.4946977221
  O        47.6762858176       16.3354830979       13.6480821101
  O        46.9278298349       18.2357722322       14.6598958287
  O        49.5688874262       18.3177280680       13.9771994965
  O        10.3187099012       15.1001501541        0.0021987025
  O        52.6707548492       21.0278597265        1.2469151148
  O        12.1468448493       20.8912306595       14.6681704155
  O        13.1082148449       18.6137119058       13.3205210424
  O        13.9575341747       16.9872373053       14.6600750803
  O        29.9942427905       14.4395792651        2.7303025921
  O        28.0888813780       14.6542454167        1.4977986644
  O        32.1404102224       16.8545652639        0.0759527369
  O        30.9644162186       20.9514828841        2.4117832172
  O        32.9452270577       20.5994997842        1.3409600894
  O        29.5680234096       17.0701792516        1.5791427507
  O        30.8817978955       20.9565656592       13.6632383613
  O        32.8809803069       20.5824529212       14.6662765311
  O        31.6729386148       18.2396272359       13.9192200401
  O        28.2595366873       18.6338565312        0.0828033792
  O        32.4950661193       14.2134355649        1.3368368254
  O        32.4011372442       14.2121502104       14.8211675538
  O        29.8690320062       14.5073053353       13.4092471368
  O        28.0399119747       14.5848159757       14.7473020549
  O        17.8892093095        1.9665928246        2.6679259546
  O        18.9561975360        3.5271487965        1.4131191842
  O        39.1686294297       34.1388711688        0.0023092005
  O        43.2802697239       33.0589838645        2.3368133346
  O        42.0346398879       31.5064330466        1.2467657897
  O        20.3175269904        1.0366039441        1.4853660472
  O        43.2760815730       33.1826272146       13.5698029608
  O        42.0053438853       31.5841127248       14.5778889677
  O        40.5789909170       33.7749746516       13.9306920432
  O        22.3672182303        1.3845481587        0.0029872086
  O        36.6727470166       35.0997927227        1.2384131740
  O        16.4455429678        0.0641523786       14.6631196262
  O        17.9364453515        2.0433159593       13.3212787442
  O        18.9189600108        3.5931326716       14.6607844159
  O        29.7320823640       19.2718364156       12.1456034156
  O        29.8646257912       18.9026694072        3.9962138115
  O        31.4763461346       15.8330451996       12.0023722755
  O        31.3073841765       16.4165709204        4.0044366232
  O        32.2810127319       16.4801291777        9.6661698361
  O        29.5711257806       17.2141430496        9.0759863451
  O        30.4086494423       15.8997795210        6.4058535246
  O        31.6366521125       18.1641817556        7.0982574540
  O        30.5597611263       19.6371049667        9.5783710729
  O        28.9708650828       18.3941003591        6.3277918088
  O        39.4567374427       35.2438110898       11.9968744715
  O        19.1406549685        0.0042880653        3.9957281096
  O        41.9696464300       35.1727753412       12.0821512237
  O        21.6912975864       -0.0691261652        3.9009669104
  O        51.3652053126       18.6143070829       12.0002996203
  O        10.7511197256       18.7471311759        3.9100124629
  O        50.0796841517       16.4127828638       12.0866225974
  O         9.5249974544       16.4830027221        3.9962974666
 Zr         9.2974351657       16.0528040560       14.1774331023
 Zr        49.8367088962       16.0067419323        1.7514431674
 Zr        22.0731391938        0.0296959571       14.1840471514
 Zr        42.4608034101       35.1531990639        1.8060556123
 Zr        29.5772924954       19.0934750287       14.2782431319
 Zr        29.5748661490       19.1651528069        1.8709689216
 Zr        11.0385245535       19.0518984525        1.8328331051
 Zr        11.0444820154       19.1548220980       14.2457767343
 Zr        31.3472292372       16.1042595404        1.8781823893
 Zr        31.4130893649       16.0120392520       14.2876950663
 Zr        18.6008665296       -0.0016497229        1.7684166140
 Zr        18.5062225099       -0.0081187533       14.2086019246
 Zr        12.3028006028       16.3237812032       15.9851686644
 Zr        48.6172423605       18.8333140975        0.0153343891
 Zr        20.3145406707        2.4729600534       15.9853382145
 Zr        40.6435006846       32.6868860026       15.9733475297
 Zr        28.3399280265       16.3422143691        0.0843482499
 Zr        32.6268337134       18.8404666726        0.0610959340
  H        32.4315024625       18.5753201547        7.4820854398
  H        30.6584943870       15.3393142392       11.8027556396
  H        28.8747057087       17.1966090595       11.4026023988
