     574
 i =      163, E =     -4778.8574969513
  C        11.8587759388       14.0534977502       13.7364551322
  C        12.4562353109       12.8905902982       13.0181821963
  C        11.7044635348       12.1714676980       12.0767231059
  C        12.2808691044       11.1092797335       11.3843865455
  C        13.6215641163       10.7397498232       11.6118843725
  C        14.3548495965       11.4435728211       12.5850748667
  C        13.7819383889       12.5085482553       13.2765656822
  C        14.2610397341        9.6490263285       10.8385251919
  C        14.2562571683        9.6569008959        9.4168319459
  C        13.7430846938       10.7590298976        8.6629386578
  C        49.1269725040       21.2331049847       13.8745798089
  C        48.5502760512       22.4011365552       13.1475476010
  C        49.3002169493       23.0682742303       12.1663663712
  C        48.7332919915       24.1074390169       11.4331802987
  C        47.4028416914       24.5092749954       11.6619912218
  C        46.6720350684       23.8606624322       12.6757847686
  C        47.2344811359       22.8157473117       13.4051193686
  C        46.7725328205       25.5869338789       10.8647242231
  C        46.7613943911       25.5572773547        9.4429618453
  C        47.2613611388       24.4422155053        8.6994366501
  C        14.8601844473        8.5705594429        8.7035703346
  C        14.8918682844        8.5971213718       11.5151885274
  C        49.1132188050       21.2033810157        2.1505158784
  C        48.5278393675       22.3647695913        2.8776700891
  C        49.2670447651       23.0254063677        3.8706472448
  C        48.6907487257       24.0599980498        4.6020911214
  C        47.3604076784       24.4569327641        4.3637190083
  C        46.6400515628       23.8121532045        3.3400665003
  C        47.2135733098       22.7762066751        2.6083059296
  C        46.7219113320       25.5318352598        5.1548005526
  C        46.7335597215       25.5281184154        6.5765088596
  C        47.2490675213       24.4289299963        7.3328825585
  C        40.6223150239       17.1007311527        7.3116992991
  C        40.6331427747       17.1022153317        4.5021169714
  C        11.8830977758       14.0865767483        2.2906449948
  C        12.4724413238       12.9108967740        2.9949501543
  C        11.7148834270       12.1775566111        3.9209300771
  C        12.2814781109       11.0950936493        4.5893111929
  C        13.6203510940       10.7214693485        4.3575823662
  C        14.3583910320       11.4372020412        3.3969564453
  C        13.7929531405       12.5183816326        2.7242929896
  C        14.2539188946        9.6246902324        5.1279802900
  C        14.2524843259        9.6445941669        6.5498187894
  C        13.7425794446       10.7535278564        7.2968942122
  C        22.5132438764        3.2441251612       13.7487081415
  C        23.2316365209        4.3476544429       13.0507860414
  C        24.2288056267        4.0640555974       12.1057725579
  C        24.8600595053        5.1011759777       11.4241780211
  C        24.5099961749        6.4441342544       11.6674905822
  C        23.5413165850        6.7192837307       12.6498667900
  C        22.9052589959        5.6838953963       13.3298672811
  C        25.1192603934        7.5481836871       10.8912270458
  C        25.0891248571        7.5409524765        9.4698672511
  C        24.3820950317        6.5440390743        8.7251405592
  C        38.3031376874       31.9293554941       13.8437275761
  C        37.5747422458       30.8389273966       13.1337840111
  C        36.6159437126       31.1412704189       12.1548612206
  C        36.0003814274       30.1198950480       11.4365558022
  C        36.3286354248       28.7711037984       11.6759431509
  C        37.2578392364       28.4762022999       12.6912547327
  C        37.8777001672       29.4963072205       13.4081442637
  C        35.7273783310       27.6786785926       10.8786090937
  C        35.7588522669       27.6941973418        9.4572444877
  C        36.4659005433       28.6959534791        8.7201376232
  C        25.7134544100        8.6093475694        8.7489334617
  C        25.7204906742        8.6212014112       11.5610513763
  C        38.3288720554       31.9623575946        2.1610466102
  C        37.6072332782       30.8889410037        2.9026368111
  C        36.6801350204       31.1975035620        3.9097413397
  C        36.0703832423       30.1787345402        4.6391500751
  C        36.3734447154       28.8262702461        4.3844829919
  C        37.2780235674       28.5276673536        3.3472413204
  C        37.8900805326       29.5429596609        2.6193169599
  C        35.7656056595       27.7270171369        5.1683766381
  C        35.7783176002       27.7190982450        6.5903038575
  C        36.4749453872       28.7080416052        7.3535943682
  C        46.1354726486       26.6206945172        7.2866809357
  C        46.0879454052       26.5802135962        4.4787857790
  C        22.4605282990        3.2556743865        2.2631311062
  C        23.1539263375        4.3636493324        2.9871031842
  C        24.1550895915        4.0763465665        3.9285543769
  C        24.7829737748        5.1055805408        4.6256904153
  C        24.4299911920        6.4518315149        4.4039412025
  C        23.4517168539        6.7323621731        3.4311903595
  C        22.8190774911        5.7033394047        2.7345546162
  C        25.0625841771        7.5487235714        5.1779953477
  C        25.0604403304        7.5406844569        6.6008336197
  C        24.3667798098        6.5447962842        7.3585522502
  C        26.6269931978       17.8619001750       13.7720231996
  C        25.3187956987       17.9089946749       13.0475901338
  C        25.0617593509       18.9013405256       12.0888183823
  C        23.8470419003       18.9230522782       11.4054994149
  C        22.8534187879       17.9551263355       11.6580418865
  C        23.1073895082       16.9852579797       12.6461091927
  C        24.3236290004       16.9585985901       13.3272428259
  C        21.5793592554       17.9395050443       10.8948063998
  C        21.5777915950       17.9130253612        9.4722780996
  C        22.7826758547       17.7862363250        8.7111100427
  C        34.4375895047       17.1980579612       13.9136915908
  C        35.7283424002       17.1545662056       13.1617422197
  C        35.9376968398       16.1821934636       12.1713078339
  C        37.1180524361       16.1708540833       11.4330806591
  C        38.1226423836       17.1305568249       11.6656645553
  C        37.9153992001       18.0850032912       12.6794286565
  C        36.7318782132       18.1015413854       13.4146487639
  C        39.3772955007       17.1367291558       10.8791608640
  C        39.3704828715       17.1389808961        9.4575041773
  C        38.1617818415       17.2532942487        8.7008566060
  C        20.3307972860       17.9298360628        8.7643318689
  C        20.3545189733       17.9442972103       11.5774119214
  C        34.4392270967       17.2370679052        2.1927272395
  C        35.7425744449       17.1353852284        2.9139162992
  C        35.9481302312       16.1560478307        3.8968861742
  C        37.1391295424       16.1252491481        4.6187041404
  C        38.1531561542       17.0729246029        4.3771637562
  C        37.9540794229       18.0243070520        3.3593550168
  C        36.7625306332       18.0598700884        2.6410843556
  C        39.4029734074       17.0907368873        5.1695678653
  C        39.3835155542       17.1148665390        6.5906337191
  C        38.1676801213       17.2396601887        7.3344577140
  C        35.1469967043       26.6403889246        7.2940411158
  C        35.1728105921       26.6579865775        4.4848953120
  C        26.5675719139       17.8244205350        2.3286644832
  C        25.2520930293       17.8712948579        3.0342543974
  C        24.9853063919       18.8792753735        3.9730659327
  C        23.7685455848       18.9027958171        4.6490853383
  C        22.7885060941       17.9192295783        4.4080718319
  C        23.0487820859       16.9369690363        3.4355160179
  C        24.2668999255       16.9106710591        2.7589879301
  C        21.5255463476       17.9002926066        5.1821702934
  C        21.5503871042       17.8921143393        6.6036047079
  C        22.7692727253       17.7766067219        7.3448723367
  C        14.0462208441       17.8284062890        2.2945450947
  C        15.3495703753       17.8841512920        3.0210633777
  C        15.6055030842       18.8859161385        3.9704260013
  C        16.8138686224       18.9054721303        4.6642666473
  C        17.8005782549       17.9262038100        4.4308928345
  C        17.5492854216       16.9486629483        3.4495471980
  C        16.3404038721       16.9244277076        2.7572551309
  C        19.0696406368       17.9087208833        5.1995725978
  C        19.0691409393       17.9067434397        6.6220331357
  C        17.8626654850       17.8086428818        7.3842039051
  C        46.8034061758       17.2161057327        2.1614778886
  C        45.5099701640       17.1463501552        2.9017322881
  C        45.3067646639       16.1663063762        3.8856329994
  C        44.1228622939       16.1399928467        4.6180334502
  C        43.1117528087       17.0933240924        4.3883849994
  C        43.3113463632       18.0516655721        3.3763064486
  C        44.4963819599       18.0821885284        2.6451345918
  C        41.8587652463       17.0995773883        5.1781859386
  C        41.8675620822       17.1107299323        6.6002503838
  C        43.0776579896       17.2147565783        7.3560624383
  C        20.3163777852       17.9183301932        7.3294950356
  C        20.2932549534       17.8885610999        4.5163604566
  C        46.7855065791       17.2334631059       13.8808076134
  C        45.4840151457       17.1331501830       13.1595174770
  C        45.2648022914       16.1376395339       12.1952519547
  C        44.0777211930       16.1146891978       11.4668712995
  C        43.0796760403       17.0845008968       11.6848266420
  C        43.2901285085       18.0511577076       12.6859715439
  C        44.4781475479       18.0802166358       13.4097075413
  C        41.8320115204       17.1070075688       10.8891333725
  C        41.8539915936       17.1138811102        9.4677494219
  C        43.0713572017       17.2130282866        8.7228921118
  C        46.1532690418       26.6371136051        8.7212358110
  C        46.1626331552       26.6560830303       11.5308657520
  C        14.0462024026       17.8323464459       13.7040111873
  C        15.3677451366       17.9081655134       13.0149587596
  C        15.6405211187       18.9229628800       12.0854104287
  C        16.8698825710       18.9611523280       11.4312960027
  C        17.8544583426       17.9838363691       11.6807999147
  C        17.5887961403       16.9985745266       12.6491725842
  C        16.3613862298       16.9597299824       13.3067186482
  C        19.1214844179       17.9586726246       10.9112554283
  C        19.0961327949       17.9309724783        9.4898624165
  C        17.8758962859       17.8194565251        8.7501564004
  C        28.8076963082       14.0894431706        2.3961532090
  C        28.1942650631       12.9155817041        3.0838802551
  C        28.9234299431       12.1630129547        4.0163429166
  C        28.3248558872       11.0880105080        4.6686147871
  C        26.9831760169       10.7410231417        4.4113709239
  C        26.2751737226       11.4736118315        3.4419743134
  C        26.8715929509       12.5492300160        2.7885318812
  C        26.3168243019        9.6599129503        5.1733031621
  C        26.3125181787        9.6829609898        6.5943586584
  C        26.8242332921       10.7925044255        7.3395654183
  C        32.1749127231       21.2365733110        2.1524182053
  C        32.7698106006       22.4042325821        2.8705594897
  C        32.0203575736       23.0874555046        3.8404323934
  C        32.5914013317       24.1279730830        4.5671707983
  C        33.9275532810       24.5131326528        4.3443635835
  C        34.6593521882       23.8492118684        3.3419890823
  C        34.0904822135       22.8034286338        2.6173098836
  C        34.5577193012       25.5883420224        5.1442125797
  C        34.5518901964       25.5588316243        6.5657077260
  C        34.0409438301       24.4444390468        7.3033692953
  C        25.7030175970        8.6057576540        7.3142864591
  C        25.6756504566        8.6116538285        4.5008281901
  C        32.1028504585       21.2228201697       13.8761577988
  C        32.6970146248       22.3697901782       13.1256290565
  C        31.9615269515       23.0347483089       12.1324787632
  C        32.5426822277       24.0651747769       11.3966674294
  C        33.8731828104       24.4612811428       11.6364962546
  C        34.5920119471       23.8089385670       12.6563598320
  C        34.0155014920       22.7729077540       13.3869435124
  C        34.5130544284       25.5444551119       10.8543655464
  C        34.5282845879       25.5367584458        9.4326390385
  C        34.0290273681       24.4344156504        8.6698605265
  C        40.6152361957       17.1080709210        8.7463758835
  C        40.6020906677       17.1364618075       11.5565215518
  C        28.7515063945       14.0685603729       13.8120394095
  C        28.1436532316       12.9196435646       13.0738524084
  C        28.8837517047       12.2210666341       12.1080430925
  C        28.3069149084       11.1616513791       11.4112310251
  C        26.9735959164       10.7750248117       11.6549092135
  C        26.2503116525       11.4618158423       12.6477284580
  C        26.8259660734       12.5213851496       13.3464925759
  C        26.3336134074        9.6825972690       10.8829125211
  C        26.3221246806        9.6947485586        9.4610824445
  C        26.8264119345       10.7996463011        8.7054222697
  C        18.1354749754        3.1811057857        2.3222816085
  C        17.4062258574        4.2783432018        3.0209063056
  C        16.3903664177        4.0000006060        3.9482783768
  C        15.7426737480        5.0399955389        4.6117751859
  C        16.0947405303        6.3837044224        4.3722286369
  C        17.0842942528        6.6532132091        3.4086370451
  C        17.7333562419        5.6158555624        2.7435730524
  C        15.4703727351        7.4913825268        5.1352743920
  C        15.4854944631        7.4906039984        6.5569891774
  C        16.1870278445        6.4969755438        7.3101627722
  C        42.9458518671       31.8595653839        2.0780393125
  C        43.6462077223       30.7718638332        2.8220610303
  C        44.5916488423       31.0931945171        3.8082051122
  C        45.1973594291       30.0876471798        4.5558797352
  C        44.8710546395       28.7345760682        4.3409002085
  C        43.9453379672       28.4202291084        3.3275909181
  C        43.3365129667       29.4253753346        2.5795594082
  C        45.4886279801       27.6552621435        5.1440810224
  C        45.4927011234       27.6807955486        6.5657765856
  C        44.8055761312       28.6887985346        7.3124264953
  C        14.8564808198        8.5630693876        7.2693504603
  C        14.8752184555        8.5632169002        4.4566780278
  C        42.9465286394       31.9616513277       13.8039347237
  C        43.6918381575       30.8854750702       13.0904857737
  C        44.6562942070       31.1913660559       12.1180548220
  C        45.2778343826       30.1717604564       11.4003520087
  C        44.9541834961       28.8214400139       11.6381227292
  C        44.0208738652       28.5237984485       12.6490679309
  C        43.3925934737       29.5405808382       13.3612153163
  C        45.5631653587       27.7240114839       10.8528540582
  C        45.5332866623       27.7172499952        9.4315549188
  C        44.8268836524       28.7074326273        8.6786114976
  C        35.1362119825       26.6283671278        8.7287739637
  C        35.1231979759       26.6025659191       11.5386630275
  C        18.1486410740        3.2470565702       13.7014382420
  C        17.4300481440        4.3438712496       12.9921808808
  C        16.4146575646        4.0526158497       12.0687958808
  C        15.7663353882        5.0832588971       11.3934458794
  C        16.1211726910        6.4284764137       11.6160246082
  C        17.1127740264        6.7118523972       12.5730474882
  C        17.7604636740        5.6829262303       13.2527814159
  C        15.4906211012        7.5241541480       10.8435897200
  C        15.4964339672        7.5074757355        9.4224562858
  C        16.1932014096        6.5057702132        8.6757673767
  H        10.6722558031       12.4654225767       11.8998884444
  H        11.6945536356       10.5506332917       10.6579967547
  H        15.3920242826       11.1693051926       12.7664926656
  H        14.3515884660       13.0720509614       14.0116441880
  H        13.3761368127       11.6311794725        9.1962531531
  H        50.3228552354       22.7480878031       11.9814674690
  H        49.3197374879       24.6225624769       10.6754730624
  H        45.6426653096       24.1617056992       12.8591958483
  H        46.6636054312       22.2907318924       14.1674710252
  H        47.6300683433       23.5758949132        9.2410961763
  H        14.8723913095        8.5884817863       12.6034989849
  H        50.2870617548       22.7024805461        4.0655991121
  H        49.2691680170       24.5754145823        5.3656010193
  H        45.6107443625       24.1096184517        3.1508194625
  H        46.6528113211       22.2541784095        1.8366070106
  H        47.6079853624       23.5518749831        6.8019740723
  H        40.6371476259       17.0615001706        3.4145356072
  H        48.6871761911       14.0951370244       15.7949797071
  H        10.6813550385       12.4664870335        4.0982146764
  H        11.6896805917       10.5245393923        5.3018715325
  H        15.3938971629       11.1595064767        3.2111547081
  H        14.3654044719       13.0879010317        1.9959672909
  H        13.3758612161       11.6221868257        6.7582568127
  H        47.9302347084       14.2188295738        1.7159385037
  H        47.7799825796       14.3738976089       14.4903202412
  H        49.0834574640       18.5521957481        2.8722880702
  H        10.4162245834       14.1343267747        0.0038099671
  H        24.4864964278        3.0245464152       11.9156510562
  H        25.6331219189        4.8810787122       10.6911343258
  H        23.2640132891        7.7532943071       12.8441323997
  H        22.1350398576        5.8870621671       14.0699032843
  H        23.8202965678        5.7885027918        9.2665754935
  H        36.3780989977       32.1841626327       11.9590049018
  H        35.2565572513       30.3577552371       10.6793066479
  H        37.5189093332       27.4374967194       12.8830336456
  H        38.6209052009       29.2767258213       14.1709669156
  H        37.0325990138       29.4443889911        9.2663629295
  H        25.7562211854        8.6047482926       12.6488474675
  H        36.4584817573       32.2417232219        4.1182859229
  H        35.3460506411       30.4232610958        5.4129538467
  H        37.5235802501       27.4874111885        3.1440122697
  H        38.6112165789       29.3177495567        1.8374119820
  H        37.0496880342       29.4653240817        6.8281960265
  H        46.1094657018       26.5877196788        3.3907526462
  H        44.6683202789       35.1162378850       15.8088108360
  H        24.4321033373        3.0378544181        4.0951830774
  H        25.5632389369        4.8758910217        5.3481668859
  H        23.1676763018        7.7671771847        3.2509612951
  H        22.0481076542        5.9171450385        1.9978832035
  H        23.7925666761        5.7904911720        6.8284452706
  H        44.9538972104       34.3904180967        1.7002981829
  H        44.9017034849       34.2067006121       14.4856437356
  H        40.6660116552       33.2092976171        2.8583062751
  H        23.1504409874        1.9579954050        0.0106095134
  H        25.8275333061       19.6488825695       11.8944678901
  H        23.6524874343       19.6992984454       10.6684207077
  H        22.3527021774       16.2284091550       12.8502415841
  H        24.5305358124       16.1957788903       14.0742134523
  H        23.7231560039       17.6668913175        9.2411993911
  H        35.1596672465       15.4438073750       11.9925513290
  H        37.2804347216       15.4072544080       10.6754273576
  H        38.6823521820       18.8346998691       12.8631572540
  H        36.5557727416       18.8515453951       14.1824292878
  H        37.2247982736       17.3821032363        9.2348884463
  H        20.3620596097       17.9879471325       12.6651416851
  H        35.1564248864       15.4360857756        4.0916513673
  H        37.2975120358       15.3623539092        5.3778960080
  H        38.7304381596       18.7618144349        3.1664668573
  H        36.5877323344       18.8130759864        1.8766055526
  H        37.2351269258       17.3576167970        6.7901975180
  H        35.1435620232       26.6851097505        3.3972702521
  H        28.5033700448       21.0633288246       15.9645733438
  H        25.7438972602       19.6376213892        4.1533958164
  H        23.5611390534       19.6883365557        5.3725837129
  H        22.2999029076       16.1713342747        3.2432322851
  H        24.4845581131       16.1405765737        2.0227213722
  H        23.6995012381       17.6497952357        6.7991488175
  H        29.0327676556       21.7045524431        1.7478928033
  H        29.1824333610       21.7256229014       14.6337109105
  H        32.0738153277       18.5531672021        3.0071595324
  H        27.3749559250       19.0221542748        0.0798916542
  H        14.8470957732       19.6448738134        4.1490732907
  H        17.0087878333       19.6886269164        5.3937805355
  H        18.3007350858       16.1848209573        3.2602782636
  H        16.1350080405       16.1564842039        2.0152828363
  H        16.9198139054       17.6920221654        6.8577970096
  H        46.0941177955       15.4392946037        4.0703134369
  H        43.9670765048       15.3731107296        5.3736527715
  H        42.5385500602       18.7955359659        3.1938863364
  H        44.6667989624       18.8371135595        1.8810943284
  H        44.0180153273       17.3270453013        6.8240248098
  H        20.2865524967       17.9178917660        3.4282208289
  H        46.0399412316       15.3953473932       12.0187318648
  H        43.9108324341       15.3409691364       10.7206118120
  H        42.5254961464       18.8051201527       12.8611115022
  H        44.6609121471       18.8452157730       14.1603432071
  H        44.0070101260       17.3228412902        9.2635548648
  H        46.1996536726       26.6827308324       12.6183035186
  H        52.7413441903       21.0627052823        0.1998067009
  H        14.8791535979       19.6754125449       11.8920079914
  H        17.0802496555       19.7508401799       10.7132081607
  H        18.3404536646       16.2379244772       12.8499998101
  H        16.1411416871       16.1858143166       14.0379711878
  H        16.9429122769       17.7111288939        9.2950238641
  H        52.3229078114       21.6734361372       14.2890136729
  H        52.0137111079       21.7024751129        1.5007798216
  H        49.0682433929       18.6079961991       13.1986888002
  H        13.2478710016       19.0160905863       15.9724097867
  H        29.9579589865       12.4344606822        4.2140974526
  H        28.8915149840       10.5030099935        5.3898535429
  H        25.2384463835       11.2151921697        3.2361534800
  H        26.3234824304       13.1359953673        2.0553926605
  H        27.1890303471       11.6596114527        6.7973701894
  H        30.9935820409       22.7772064661        4.0188705313
  H        32.0051754072       24.6575441288        5.3150674853
  H        35.6932702223       24.1379571116        3.1641117915
  H        34.6604480896       22.2652146990        1.8634140111
  H        33.6809834542       23.5787614842        6.7548062326
  H        25.7000561170        8.5948274153        3.4126459929
  H        30.9352669712       22.7267526508       11.9461985332
  H        31.9648419744       24.5832353874       10.6342734355
  H        35.6218545036       24.1037857728       12.8472688485
  H        34.5745933820       22.2479956832       14.1581119464
  H        33.6596505651       23.5607148905        9.1990189306
  H        40.5969672680       17.1048145237       12.6443989324
  H        32.5028639671       14.1514507644        0.2595343370
  H        29.9122220989       12.5230955425       11.9234918757
  H        28.8886515695       10.6148689018       10.6722006467
  H        25.2184900129       11.1764071291       12.8422659442
  H        26.2645056521       13.0674104337       14.1009055471
  H        27.1916466688       11.6723195094        9.2389592726
  H        33.3116451147       14.2359207424       14.4682614796
  H        33.4061190894       14.4171473874        1.5994623824
  H        32.0850264118       18.5057747608       13.1923697376
  H        30.2203141845       14.1920673490        0.0790190606
  H        16.1181841421        2.9635105375        4.1345732715
  H        14.9531199580        4.8206568850        5.3273315582
  H        17.3669352078        7.6860606259        3.2156743369
  H        18.5155393043        5.8185085708        2.0158803637
  H        16.7536723946        5.7396961999        6.7766717086
  H        44.8278713020       32.1402878070        3.9824228080
  H        45.9371864017       30.3414143611        5.3118602860
  H        43.6827904330       27.3781435139        3.1573462100
  H        42.6000190840       29.1900654721        1.8147684642
  H        44.2302421127       29.4365832082        6.7741237260
  H        14.8516429427        8.5465552234        3.3684522690
  H        44.8997605262       32.2340521528       11.9265205320
  H        46.0246575342       30.4129992692       10.6470343008
  H        43.7641061956       27.4840571489       12.8408234097
  H        42.6462592041       29.3178246645       14.1198352666
  H        44.2684059550       29.4703237244        9.2132205993
  H        35.0809071503       26.6143207921       12.6261601091
  H        36.6052030964       35.1341220320        0.1857960473
  H        16.1434505977        3.0130515375       11.8991998500
  H        14.9738810480        4.8564517069       10.6834946543
  H        17.3965090407        7.7472922565       12.7497383504
  H        18.5435734631        5.8934041302       13.9772865339
  H        16.7646763290        5.7555722725        9.2142203235
  H        36.2786706382       34.4824727667       14.2680430470
  H        36.3811580652       34.2091295040        1.5047344222
  H        40.5804910880       33.2029062240       13.1482963717
  H        17.4709551570        1.9478794758       15.9690360339
  H        29.0428976496       19.2751469795        4.5717862664
  H        29.8299927980       19.6538349912       11.5730713771
  H        31.9035807199       15.8299586639       11.5836939465
  H        31.1683531125       15.5470404340        4.5282272357
  H        28.1243575437       17.9431104891        6.7133024932
  H        29.4486461921       15.3278631423        6.5452125983
  H        31.7597271883       19.8876539584        9.5638833359
  H        33.0952576139       17.2478340947        9.5043082692
  H        28.7350498043       16.6643802050        8.8559157294
  H        18.8541532405        0.8692435644        4.3404476373
  H        40.5279157565       35.2289082163       11.9468507138
  H        42.3244653509       34.4191947065       11.5850105163
  H        22.0876801942        0.6922716288        4.3566443355
  H        11.5966904098       18.7127111310        4.3876413472
  H        52.2652430547       18.4313032019       11.6723915191
  H        49.2551607502       16.4769317765       11.5794231638
  H        10.1498205420       15.7983862910        4.2981235980
  H        50.8504351587       17.6925307658       11.9490604205
  H        10.0458144411       17.3947107585        4.0570350754
  H        20.2156332485        0.0024276695        4.0469877370
  H        39.1837283572       36.1244844017       11.6814289425
 Ni        31.1170479879       17.8654706039       10.8373538161
 Ni        31.1569824817       16.3247841786        8.2369460251
 Ni        30.0088293522       18.7494904313        8.1590694414
 Ni        30.0954259485       17.3795821557        5.3269975240
  O        10.6498954334       14.3651280764       13.4807673855
  O        12.6131434198       14.6575213272       14.5787983545
  O        49.1478609888       16.8459016486       15.9846599720
  O        50.3503209809       20.9356819823       13.6428875421
  O        48.3485956003       20.5932756366       14.6608431625
  O        11.0517144852       17.0537804330       14.4956393909
  O        50.3209636490       20.8816405502        2.4119746040
  O        48.3467170422       20.5867265787        1.3322151394
  O        49.5437114684       18.2484135284        2.0732554455
  O        12.3592317384       18.6246630414        0.0047641777
  O        48.6931891168       14.1486786054       14.7461913681
  O         8.2099176138       14.2104388853        1.3276132462
  O        10.7353706275       14.5067626828        2.6694430454
  O        12.5718250113       14.5828329998        1.3335974937
  O        22.8444965027        2.0425838557       13.4822801853
  O        21.6059085624        3.5924050183       14.5842104505
  O        42.0582864780       34.1374922379       15.9738672292
  O        37.9817692899       33.1374285998       13.5672692174
  O        39.2182803967       31.5761040004       14.6616931660
  O        20.3084035280        1.0396470541       14.4970166191
  O        38.0246918821       33.1858776571        2.4202629966
  O        39.2192478220       31.5837997388        1.3314337172
  O        40.6523681253       33.7694417171        2.0653166783
  O        18.2556243807        1.3766883259        0.0018686975
  O        44.6222602250       35.1005058603       14.7536448092
  O        24.2054359738       -0.0000053299        1.3258685499
  O        22.7529154285        2.0574635848        2.5888236561
  O        21.6244820141        3.5960534657        1.3478428909
  O        27.5022272011       18.7530816422       13.4896465458
  O        26.7635460255       16.9327298858       14.6430852700
  O        30.6323779594       19.3500373194        0.0779567444
  O        33.5881371951       16.2750473688       13.6617856690
  O        34.2752085215       18.1678046288       14.7319401734
  O        29.5735242513       17.0587257118       14.5695023660
  O        33.5549361790       16.3394969591        2.4246909357
  O        34.3009069417       18.2394569567        1.4141546776
  O        31.6472663453       18.3139981685        2.1672499822
  O        30.3207395891       15.1579038341        0.0930324509
  O        28.5555464212       21.0272101756       14.8958656564
  O        28.5140809062       20.9503954605        1.4192237596
  O        27.4529355267       18.6782651121        2.6641691945
  O        26.6921820772       16.9256368778        1.4203419497
  O        13.1483855121       18.6929428700        2.5925276906
  O        13.9191750229       16.9162547283        1.4101339833
  O        50.5962887434       19.3501946205        0.0255098746
  O        47.6832584500       16.3268454235        2.4223407043
  O        46.9507860977       18.1755912005        1.3302882843
  O        11.0698474309       17.0155373427        1.4946885805
  O        47.6749866254       16.3361007896       13.6473149103
  O        46.9263607649       18.2360330988       14.6589849419
  O        49.5687064225       18.3176532587       13.9772212557
  O        10.3186890523       15.1001599691        0.0021670175
  O        52.6707835329       21.0278889806        1.2469260152
  O        12.1468649586       20.8912331130       14.6682038410
  O        13.1081840779       18.6136320077       13.3205768560
  O        13.9572498068       16.9871179526       14.6602449995
  O        29.9925921116       14.4382376222        2.7356695926
  O        28.0885039800       14.6526339852        1.5012613076
  O        32.1330724866       16.8498024988        0.0912368230
  O        30.9609826294       20.9470776462        2.4174896367
  O        32.9423263470       20.6024682886        1.3439719826
  O        29.5639393546       17.0715810789        1.5805533484
  O        30.8707191472       20.9454158176       13.6588111085
  O        32.8759081631       20.5862934345       14.6638952974
  O        31.6882290488       18.2557256971       14.0451859515
  O        28.2626261233       18.6293127799        0.0832996925
  O        32.4902830883       14.2133914673        1.3357163785
  O        32.4050488125       14.2161183887       14.8178374417
  O        29.9233947959       14.4395187564       13.4865784614
  O        28.0403635839       14.5875595860       14.7454686667
  O        17.8892731732        1.9666937883        2.6679216684
  O        18.9562574632        3.5271778519        1.4130755531
  O        39.1685885016       34.1388911087        0.0023151509
  O        43.2802210992       33.0589427136        2.3368362799
  O        42.0345379631       31.5064467181        1.2467302298
  O        20.3177599575        1.0368718045        1.4851121173
  O        43.2760943871       33.1825726721       13.5697668896
  O        42.0052872165       31.5841047451       14.5778621382
  O        40.5790487357       33.7751106381       13.9307514316
  O        22.3673926019        1.3846629884        0.0030277394
  O        36.6727967329       35.0998292918        1.2384041743
  O        16.4456173248        0.0642955273       14.6631597586
  O        17.9365231402        2.0433883638       13.3212680932
  O        18.9190763325        3.5931574481       14.6607861290
  O        29.9816066669       18.8370912713       12.0831166898
  O        29.7544130709       18.8297789834        4.0744941441
  O        31.3023553330       16.4068569768       12.0899598513
  O        31.2199624068       16.4131002307        4.0790067469
  O        32.2816355468       16.7768670887        9.7474335891
  O        29.5690911776       17.0685766821        9.1552469611
  O        30.2857066210       15.8178942588        6.5026781673
  O        31.5695340236       18.0216098831        7.1705701119
  O        30.9183559026       19.4311355339        9.7245668456
  O        28.9699990435       18.3967808553        6.5655962380
  O        39.4567292028       35.2437457170       11.9968286830
  O        19.1420323387        0.0048229337        3.9955792757
  O        41.9695328996       35.1725673060       12.0819896867
  O        21.6913860457       -0.0693413578        3.9011944972
  O        51.3652986814       18.6143233449       12.0003266152
  O        10.7508960049       18.7471468851        3.9100690003
  O        50.0795970814       16.4127815207       12.0866682604
  O         9.5239976730       16.4831792636        3.9963290976
 Zr         9.2974783343       16.0527574173       14.1773722115
 Zr        49.8371913122       16.0066897203        1.7514882455
 Zr        22.0733812917        0.0303300307       14.1837488116
 Zr        42.4610789799       35.1538735696        1.8060785189
 Zr        29.6054415470       19.0771688838       14.2682121641
 Zr        29.5610024456       19.1532406461        1.8948171430
 Zr        11.0385552738       19.0519492560        1.8329378357
 Zr        11.0446547466       19.1547227837       14.2458017234
 Zr        31.3326715744       16.1042636262        1.8942098523
 Zr        31.3876156512       16.0202872665       14.2743749898
 Zr        18.6014100296       -0.0007751689        1.7685102947
 Zr        18.5066408769       -0.0072948758       14.2087345752
 Zr        12.3029990002       16.3235850016       15.9851388325
 Zr        48.6171120714       18.8331198859        0.0154415546
 Zr        20.3155438523        2.4741017845       15.9852689586
 Zr        40.6437366596       32.6876143917       15.9731331478
 Zr        28.3381160067       16.3343506570        0.0800049391
 Zr        32.6148774170       18.8308994729        0.0648837519
  H        32.4095078417       18.4460241546        7.4217327765
  H        32.6413667552       15.3411674239        7.0812107710
  H        32.9366608547       15.2256690811        7.7716698030
