     574
 i =      122, E =     -4778.8341786974
  C        11.8587081384       14.0533747232       13.7366791104
  C        12.4563386036       12.8908394317       13.0179922547
  C        11.7045627265       12.1712882142       12.0768926209
  C        12.2809522610       11.1092251385       11.3843633359
  C        13.6216030816       10.7396809734       11.6120765710
  C        14.3550301006       11.4436980158       12.5849923077
  C        13.7819210011       12.5085489801       13.2765348947
  C        14.2609540534        9.6489770799       10.8385842755
  C        14.2562148982        9.6568595774        9.4168849309
  C        13.7430642496       10.7589861496        8.6629692029
  C        49.1273501741       21.2335102476       13.8750543600
  C        48.5502631179       22.4008282673       13.1471172058
  C        49.3004585831       23.0686154793       12.1665452080
  C        48.7332331215       24.1073523729       11.4329663921
  C        47.4029251811       24.5094597593       11.6622890469
  C        46.6720386825       23.8605004372       12.6758331475
  C        47.2347793549       22.8159806135       13.4054993139
  C        46.7725759826       25.5870545911       10.8649032330
  C        46.7613277303       25.5572767524        9.4431480941
  C        47.2612573021       24.4423029406        8.6994870011
  C        14.8600208619        8.5704426447        8.7036505760
  C        14.8920362527        8.5971437062       11.5151203324
  C        49.1121311967       21.2029883702        2.1520175502
  C        48.5275729880       22.3659283533        2.8775328225
  C        49.2667179151       23.0253048826        3.8713696873
  C        48.6907729631       24.0604195441        4.6023158123
  C        47.3603358156       24.4571142093        4.3642782507
  C        46.6399547918       23.8130122319        3.3402782191
  C        47.2129651261       22.7766008198        2.6088093615
  C        46.7217318869       25.5320101656        5.1550772716
  C        46.7335820209       25.5283360323        6.5767489931
  C        47.2488681689       24.4289056222        7.3329345846
  C        40.6231675914       17.1196213683        7.3136996437
  C        40.6362224039       17.1296289984        4.5039891485
  C        11.8829685385       14.0861223938        2.2903302763
  C        12.4727582885       12.9111952555        2.9954577665
  C        11.7145499456       12.1771114449        3.9203677647
  C        12.2816129469       11.0951235098        4.5891339975
  C        13.6205149753       10.7215006423        4.3575173312
  C        14.3585382757       11.4375553282        3.3970845524
  C        13.7929626735       12.5182884007        2.7238511196
  C        14.2541018116        9.6247737030        5.1280084810
  C        14.2525025747        9.6445548881        6.5498552038
  C        13.7425272475       10.7534742700        7.2969252810
  C        22.5138503616        3.2447760712       13.7482652488
  C        23.2324822782        4.3486377423       13.0506133664
  C        24.2301152613        4.0651040881       12.1059237970
  C        24.8612462856        5.1023889472       11.4242810805
  C        24.5110123883        6.4457024919       11.6658886124
  C        23.5426104271        6.7202184567       12.6488940762
  C        22.9063650164        5.6851100543       13.3294168972
  C        25.1206184796        7.5502883310       10.8900057971
  C        25.0918133361        7.5419531325        9.4684443314
  C        24.3864704536        6.5441037748        8.7234044464
  C        38.3028865213       31.9288752840       13.8437238419
  C        37.5755657216       30.8379749757       13.1324423028
  C        36.6181673147       31.1398944036       12.1520126905
  C        36.0030182184       30.1180151954       11.4338275680
  C        36.3298575526       28.7691058573       11.6746891656
  C        37.2577391157       28.4750517199       12.6914916923
  C        37.8776212368       29.4954211129       13.4081555991
  C        35.7287402182       27.6762765306       10.8773826472
  C        35.7610188601       27.6901014704        9.4559248436
  C        36.4702845596       28.6903694342        8.7189085497
  C        25.7157192689        8.6103555109        8.7468837109
  C        25.7218295531        8.6239631327       11.5589966522
  C        38.3289184145       31.9618166768        2.1611938091
  C        37.6084697227       30.8875279137        2.9037848954
  C        36.6812349527       31.1947173359        3.9112059074
  C        36.0717550418       30.1750211520        4.6397646905
  C        36.3746554077       28.8226964185        4.3838862334
  C        37.2793110184       28.5255006256        3.3463420032
  C        37.8912023367       29.5417657138        2.6193394186
  C        35.7668159733       27.7228223828        5.1674354579
  C        35.7813315778       27.7137381914        6.5894417097
  C        36.4788986696       28.7023303327        7.3523926226
  C        46.1354728659       26.6208915312        7.2868547288
  C        46.0881100323       26.5804492776        4.4788550096
  C        22.4612074204        3.2558104544        2.2628821130
  C        23.1552419444        4.3634721277        2.9865885528
  C        24.1571871885        4.0759115150        3.9272585340
  C        24.7867965877        5.1045124463        4.6237649288
  C        24.4337095487        6.4508960460        4.4028607141
  C        23.4556419702        6.7323855606        3.4301005452
  C        22.8217278368        5.7035884064        2.7342060519
  C        25.0678368080        7.5480198219        5.1754925881
  C        25.0652893855        7.5401013893        6.5983862498
  C        24.3715200634        6.5447964568        7.3567615115
  C        26.6285390187       17.8610932190       13.7709269216
  C        25.3201892304       17.9124039945       13.0499991548
  C        25.0626345566       18.9017481609       12.0880076051
  C        23.8491214591       18.9215487885       11.4027665418
  C        22.8543029627       17.9557443514       11.6589031056
  C        23.1084932097       16.9869229233       12.6481092290
  C        24.3241420530       16.9625603942       13.3299554213
  C        21.5814174213       17.9375698497       10.8935621044
  C        21.5799879515       17.9119347755        9.4709376107
  C        22.7847540957       17.7831936591        8.7099373231
  C        34.4370909956       17.1973998791       13.9125588989
  C        35.7267741248       17.1543104910       13.1608930178
  C        35.9341699827       16.1868852841       12.1649895232
  C        37.1147868057       16.1764875159       11.4272864397
  C        38.1212478057       17.1329253268       11.6653783613
  C        37.9168001339       18.0811159308       12.6854951961
  C        36.7329130664       18.0970110697       13.4197016649
  C        39.3762974707       17.1416097379       10.8801075266
  C        39.3697763385       17.1485094350        9.4586121100
  C        38.1618391847       17.2660043775        8.7013482337
  C        20.3326751608       17.9280492952        8.7633905726
  C        20.3566374155       17.9430450874       11.5763916440
  C        34.4396501295       17.2375775211        2.1934525620
  C        35.7409146872       17.1431634125        2.9191205201
  C        35.9546380691       16.1637355019        3.9002193559
  C        37.1485200632       16.1397189740        4.6182556078
  C        38.1547989898       17.0952948192        4.3787146170
  C        37.9461150882       18.0479475539        3.3648489447
  C        36.7528444534       18.0763207424        2.6492376898
  C        39.4054858092       17.1173990304        5.1705305675
  C        39.3849880283       17.1366683678        6.5916937542
  C        38.1685734523       17.2580758940        7.3348876200
  C        35.1483451553       26.6361038331        7.2933290836
  C        35.1727513604       26.6541739447        4.4842405385
  C        26.5701161711       17.8267391002        2.3315929077
  C        25.2544131531       17.8729673051        3.0339509283
  C        24.9896795610       18.8783806634        3.9760481474
  C        23.7718944712       18.9032435181        4.6499319854
  C        22.7909355648       17.9209641443        4.4077971177
  C        23.0490343371       16.9420226981        3.4310781551
  C        24.2677625157       16.9141327487        2.7561636757
  C        21.5271552761       17.9015694782        5.1807918930
  C        21.5525700953       17.8914681872        6.6023270855
  C        22.7712715473       17.7740933603        7.3436508027
  C        14.0467101615       17.8287987783        2.2945810525
  C        15.3502407304       17.8840710572        3.0207618283
  C        15.6058678971       18.8853102789        3.9708449008
  C        16.8141664961       18.9049711482        4.6648531553
  C        17.8020969639       17.9273136330        4.4295365150
  C        17.5509399081       16.9498751057        3.4480063316
  C        16.3421011156       16.9256723414        2.7555958975
  C        19.0709119975       17.9095927147        5.1987943603
  C        19.0712805684       17.9057972416        6.6212958634
  C        17.8646529903       17.8079698625        7.3832611175
  C        46.8046646424       17.2184924020        2.1640129069
  C        45.5124597455       17.1540591123        2.9068174786
  C        45.3071482281       16.1771446469        3.8932404160
  C        44.1226800204       16.1553613658        4.6248944620
  C        43.1157614383       17.1129726853        4.3949638662
  C        43.3177163236       18.0680823830        3.3805870958
  C        44.5026497811       18.0935939856        2.6495856183
  C        41.8612377523       17.1227222182        5.1818139753
  C        41.8690376011       17.1304805203        6.6037941395
  C        43.0787933397       17.2322379673        7.3606545447
  C        20.3186481878       17.9185656879        7.3285205311
  C        20.2944986818       17.8898504893        4.5153483830
  C        46.7849152557       17.2330490916       13.8819854717
  C        45.4826390518       17.1331449954       13.1616159488
  C        45.2630635021       16.1393512153       12.1957447764
  C        44.0762973449       16.1189770433       11.4667825152
  C        43.0772479146       17.0866763879       11.6891100168
  C        43.2879424220       18.0511566632       12.6922503830
  C        44.4757426634       18.0778968886       13.4164500247
  C        41.8308274938       17.1133937472       10.8916648963
  C        41.8532500744       17.1248793147        9.4704765491
  C        43.0714033279       17.2265685696        8.7274298687
  C        46.1531941064       26.6371172371        8.7214014280
  C        46.1626646116       26.6562704658       11.5309330779
  C        14.0472697994       17.8328610664       13.7042679238
  C        15.3683832139       17.9074333372       13.0140413956
  C        15.6417834588       18.9220381968       12.0844582778
  C        16.8711484912       18.9593242261       11.4301160843
  C        17.8562229692       17.9826104811       11.6802913142
  C        17.5897313212       16.9979428064       12.6491480766
  C        16.3623783118       16.9596346820       13.3069205294
  C        19.1234102797       17.9566011944       10.9106150282
  C        19.0980092055       17.9305538478        9.4890732197
  C        17.8780356673       17.8171721961        8.7493014440
  C        28.8098388234       14.0886661767        2.3947980649
  C        28.1984212459       12.9144684799        3.0808597954
  C        28.9244488245       12.1705848618        4.0224897887
  C        28.3261572938       11.0956428704        4.6745263161
  C        26.9889837164       10.7386865766        4.4077808032
  C        26.2853360854       11.4627063948        3.4285807963
  C        26.8809873186       12.5379114707        2.7741115203
  C        26.3213296232        9.6598265111        5.1716318051
  C        26.3152097802        9.6842361299        6.5929033486
  C        26.8222884071       10.7965013410        7.3372221485
  C        32.1748579128       21.2312193927        2.1550322730
  C        32.7679268162       22.3995618923        2.8706683899
  C        32.0213396266       23.0793747371        3.8452077927
  C        32.5921968716       24.1209844138        4.5704508375
  C        33.9268343010       24.5092872130        4.3435630284
  C        34.6572626966       23.8468487095        3.3389697196
  C        34.0881426154       22.8002483714        2.6160952321
  C        34.5584303993       25.5838018089        5.1435158850
  C        34.5533771511       25.5543542348        6.5650781837
  C        34.0426260346       24.4401849059        7.3032109589
  C        25.7057366265        8.6063264632        7.3120947275
  C        25.6813878538        8.6108214308        4.4988865490
  C        32.1009421503       21.2205838797       13.8750455061
  C        32.6941388487       22.3676179371       13.1250209142
  C        31.9593266321       23.0341813675       12.1322294172
  C        32.5414548631       24.0635874445       11.3955445328
  C        33.8717391915       24.4596767043       11.6368671239
  C        34.5898360011       23.8073436886       12.6573317233
  C        34.0121161435       22.7720000915       13.3876613263
  C        34.5123205129       25.5425474222       10.8545400992
  C        34.5291029152       25.5333988729        9.4328092906
  C        34.0300196545       24.4312471812        8.6697469700
  C        40.6149578646       17.1231200384        8.7482068850
  C        40.6006195799       17.1396233471       11.5583829925
  C        28.7526015738       14.0690587451       13.8095540280
  C        28.1460714582       12.9194604093       13.0734324515
  C        28.8827597105       12.2272811350       12.1003456671
  C        28.3058662201       11.1685361662       11.4028579860
  C        26.9755238668       10.7765364152       11.6537443121
  C        26.2542709377       11.4578341177       12.6519920786
  C        26.8305792951       12.5164492470       13.3511195637
  C        26.3338301923        9.6861440112       10.8805498974
  C        26.3231221530        9.6968632684        9.4585541087
  C        26.8238276869       10.8035573224        8.7030941525
  C        18.1356360171        3.1812584867        2.3224464707
  C        17.4060453355        4.2783965116        3.0207667566
  C        16.3904585872        3.9999966908        3.9484394821
  C        15.7425079893        5.0400395958        4.6115900501
  C        16.0949026536        6.3837322410        4.3723378979
  C        17.0843129664        6.6532178527        3.4085970225
  C        17.7337222838        5.6158756161        2.7438493189
  C        15.4702437908        7.4913433531        5.1352643674
  C        15.4852730862        7.4905066798        6.5569897273
  C        16.1870641929        6.4969990328        7.3100823592
  C        42.9461083947       31.8596415136        2.0777870340
  C        43.6461890238       30.7719441239        2.8221103887
  C        44.5917728571       31.0933167469        3.8081291275
  C        45.1974227828       30.0877960021        4.5558824794
  C        44.8711509698       28.7347130190        4.3409473481
  C        43.9455963792       28.4203219923        3.3275140597
  C        43.3368315936       29.4254288610        2.5793752472
  C        45.4888412454       27.6554950758        5.1441473120
  C        45.4926588316       27.6809130252        6.5658601240
  C        44.8056996418       28.6889771126        7.3125240348
  C        14.8564814496        8.5630441743        7.2694300953
  C        14.8753043911        8.5632785026        4.4566549170
  C        42.9464177581       31.9617434188       13.8040166490
  C        43.6916841727       30.8856173735       13.0904462977
  C        44.6564458285       31.1914045807       12.1182705882
  C        45.2779720645       30.1718879127       11.4004162735
  C        44.9541453448       28.8216111427       11.6381595136
  C        44.0209971333       28.5238510467       12.6492441874
  C        43.3928623146       29.5406684344       13.3614470406
  C        45.5631141995       27.7241628234       10.8529096065
  C        45.5333208642       27.7173866183        9.4316143329
  C        44.8268645217       28.7075786719        8.6787039741
  C        35.1379132267       26.6240262711        8.7281434698
  C        35.1232611403       26.6010007984       11.5378248808
  C        18.1488781929        3.2470380674       13.7013149441
  C        17.4300701800        4.3438608883       12.9923805854
  C        16.4148173282        4.0526223375       12.0688356237
  C        15.7664503281        5.0832035373       11.3934528019
  C        16.1212382915        6.4284478543       11.6159996826
  C        17.1129661415        6.7118412580       12.5728907053
  C        17.7606680342        5.6829404198       13.2526693058
  C        15.4906084052        7.5240683379       10.8435394104
  C        15.4965139031        7.5074303457        9.4224159137
  C        16.1930653882        6.5056299275        8.6756829046
  H        10.6724151876       12.4653110157       11.9000801015
  H        11.6945135092       10.5504900710       10.6581117568
  H        15.3922317013       11.1694130951       12.7663562283
  H        14.3517120513       13.0720690802       14.0114128789
  H        13.3761580468       11.6310991879        9.1963563580
  H        50.3229331419       22.7480165063       11.9813850382
  H        49.3199043184       24.6225382854       10.6754705271
  H        45.6427852135       24.1618502245       12.8593915722
  H        46.6637259304       22.2907708946       14.1676009309
  H        47.6298984994       23.5759707824        9.2411685639
  H        14.8726462629        8.5884558018       12.6034263732
  H        50.2868931815       22.7025476507        4.0659699666
  H        49.2689876487       24.5757185132        5.3660062838
  H        45.6106758532       24.1104576710        3.1509830564
  H        46.6526192575       22.2548428257        1.8365915472
  H        47.6078118756       23.5518754765        6.8020158018
  H        40.6409424899       17.0923928569        3.4163663440
  H        48.6870872811       14.0950950353       15.7948173838
  H        10.6810429368       12.4661272986        4.0977759262
  H        11.6897730703       10.5245015206        5.3015810279
  H        15.3941010908       11.1599642639        3.2115620642
  H        14.3656992437       13.0880549060        1.9958817975
  H        13.3760118097       11.6222930799        6.7583878300
  H        47.9303262209       14.2187084667        1.7161519656
  H        47.7800389647       14.3737827705       14.4903148907
  H        49.0845396920       18.5519590759        2.8724127139
  H        10.4161079062       14.1342369356        0.0036292470
  H        24.4883877995        3.0257512828       11.9156211761
  H        25.6344175109        4.8822640391       10.6913728871
  H        23.2647279541        7.7540806228       12.8431377318
  H        22.1360291565        5.8886306059       14.0692934360
  H        23.8243722228        5.7887273537        9.2647538295
  H        36.3808788757       32.1827562756       11.9551276826
  H        35.2604012413       30.3559124876       10.6754253349
  H        37.5181003633       27.4364039376       12.8844211844
  H        38.6197111768       29.2758719369       14.1721149693
  H        37.0383672432       29.4380512890        9.2647544873
  H        25.7562294943        8.6074376983       12.6468263759
  H        36.4597985929       32.2386679921        4.1214317200
  H        35.3472037593       30.4187164110        5.4136293064
  H        37.5247220779       27.4855466407        3.1414769780
  H        38.6130627501       29.3174186977        1.8378503941
  H        37.0554201068       29.4580669761        6.8266423793
  H        46.1097039927       26.5879546061        3.3908177771
  H        44.6683789600       35.1162267512       15.8088763313
  H        24.4334651152        3.0372916458        4.0940899645
  H        25.5672129365        4.8743190313        5.3459742948
  H        23.1718807709        7.7673834002        3.2501756705
  H        22.0502448894        5.9180311650        1.9983032170
  H        23.7982309117        5.7898302733        6.8266351712
  H        44.9540027972       34.3905630355        1.7003092595
  H        44.9018693366       34.2068343177       14.4857232957
  H        40.6667748448       33.2098599649        2.8584543368
  H        23.1504347661        1.9583837042        0.0106776237
  H        25.8277683890       19.6489387981       11.8910315696
  H        23.6558560175       19.6960117009       10.6634952072
  H        22.3530388838       16.2311371030       12.8536910703
  H        24.5293447224       16.2004231818       14.0778947958
  H        23.7259521340       17.6609274201        9.2382037532
  H        35.1548773916       15.4509856437       11.9815273171
  H        37.2750495092       15.4171149585       10.6649681085
  H        38.6859243704       18.8273109152       12.8739484163
  H        36.5586346219       18.8433209828       14.1913619356
  H        37.2238183958       17.3906592223        9.2344578623
  H        20.3640095315       17.9865114826       12.6640865875
  H        35.1702572706       15.4373966612        4.0964406333
  H        37.3141617595       15.3765055705        5.3752271447
  H        38.7160764292       18.7914342728        3.1730219671
  H        36.5722653804       18.8293057612        1.8864856627
  H        37.2360067379       17.3772328818        6.7909853390
  H        35.1426140793       26.6815498858        3.3966383000
  H        28.5029213867       21.0645037926       15.9642154688
  H        25.7492681392       19.6341155239        4.1621464543
  H        23.5662984518       19.6854413267        5.3774680164
  H        22.3000492226       16.1769303477        3.2372744164
  H        24.4849622905       16.1452972240        2.0184535568
  H        23.7021410334       17.6450010440        6.7994663818
  H        29.0316432526       21.7040037557        1.7492445934
  H        29.1799157555       21.7271450265       14.6326609122
  H        32.0739254485       18.5530803835        3.0047009611
  H        27.3782896135       19.0261409658        0.0823677330
  H        14.8471941750       19.6436992947        4.1508447046
  H        17.0090118882       19.6876119933        5.3949303388
  H        18.3028971435       16.1868907249        3.2573351272
  H        16.1368689577       16.1582489993        2.0130417494
  H        16.9217883770       17.6901717608        6.8570534154
  H        46.0919741620       15.4478007527        4.0792036822
  H        43.9648318028       15.3912775495        5.3829187725
  H        42.5482853339       18.8152410034        3.1980417356
  H        44.6762049849       18.8468012036        1.8846856576
  H        44.0196291845       17.3446697721        6.8295451661
  H        20.2883423848       17.9204781986        3.4272341234
  H        46.0384182463       15.3979640874       12.0162894119
  H        43.9088579387       15.3472739366       10.7185760418
  H        42.5226320338       18.8035673827       12.8710561035
  H        44.6588093406       18.8409202702       14.1690500462
  H        44.0067650011       17.3348300099        9.2689776930
  H        46.1998073400       26.6828121007       12.6183569389
  H        52.7412363118       21.0624975777        0.1998783823
  H        14.8803889784       19.6742647771       11.8903003242
  H        17.0812544607       19.7487721655       10.7117367465
  H        18.3413625881       16.2374118845       12.8504081662
  H        16.1424646718       16.1858634944       14.0384599520
  H        16.9450658971       17.7086431137        9.2940963164
  H        52.3229681623       21.6734536157       14.2888826065
  H        52.0135879668       21.7024471616        1.5008586627
  H        49.0687372967       18.6084920777       13.1985544758
  H        13.2480998742       19.0154912776       15.9728719554
  H        29.9537505658       12.4517091819        4.2326915449
  H        28.8897917889       10.5188375972        5.4044921799
  H        25.2517464017       11.1979771199        3.2154977254
  H        26.3346543724       13.1181124032        2.0345259085
  H        27.1835080045       11.6661420434        6.7964106833
  H        30.9956639773       22.7678196228        4.0270119540
  H        32.0067271298       24.6481703372        5.3206280972
  H        35.6902437916       24.1374065259        3.1585697016
  H        34.6570658432       22.2648711790        1.8594846191
  H        33.6826717568       23.5736468387        6.7560448250
  H        25.7065552120        8.5925149630        3.4107193192
  H        30.9333944967       22.7263550940       11.9451407756
  H        31.9634880967       24.5807125680       10.6324990645
  H        35.6195769530       24.1023932991       12.8485267039
  H        34.5718568649       22.2476763506       14.1584701377
  H        33.6600107927       23.5576894439        9.1985623295
  H        40.5945548772       17.1041349364       12.6460596756
  H        32.5042612244       14.1480889506        0.2600300004
  H        29.9090015561       12.5323276892       11.9096612222
  H        28.8853532125       10.6269550172       10.6583108260
  H        25.2244084133       11.1689006978       12.8516790171
  H        26.2713077808       13.0578058182       14.1103405719
  H        27.1853172716       11.6792104729        9.2343272338
  H        33.3118353450       14.2335336615       14.4667444466
  H        33.4070950886       14.4110809479        1.6007750490
  H        32.0856365924       18.5017219536       13.1553562633
  H        30.2235645649       14.1929541352        0.0776723083
  H        16.1182247557        2.9634717766        4.1345098021
  H        14.9529872161        4.8205885674        5.3271423583
  H        17.3670988150        7.6860686918        3.2158863636
  H        18.5159348568        5.8186522485        2.0162085412
  H        16.7536145552        5.7396471671        6.7766062852
  H        44.8278558439       32.1404314878        3.9824715222
  H        45.9372130140       30.3415639002        5.3118929430
  H        43.6832130187       27.3782128070        3.1572372935
  H        42.6003305889       29.1901079337        1.8145850512
  H        44.2305055986       29.4367989210        6.7741094658
  H        14.8518539348        8.5467106712        3.3684102229
  H        44.8999488294       32.2340942975       11.9268114643
  H        46.0246327899       30.4131839299       10.6469428618
  H        43.7641029346       27.4841073109       12.8408878341
  H        42.6466656632       29.3179422757       14.1201987704
  H        44.2684724847       29.4705846707        9.2132270158
  H        35.0799912191       26.6135904131       12.6252569500
  H        36.6051587423       35.1342426647        0.1858682506
  H        16.1435592464        3.0130791676       11.8992530973
  H        14.9739270101        4.8564305807       10.6835618544
  H        17.3967646910        7.7472696932       12.7495833943
  H        18.5438867689        5.8934284854       13.9770488618
  H        16.7647489044        5.7555955544        9.2141457763
  H        36.2788669965       34.4825044028       14.2679700836
  H        36.3813518592       34.2089599125        1.5048357897
  H        40.5807481217       33.2031220520       13.1482536599
  H        17.4711788568        1.9480942664       15.9690347585
  H        29.0642386783       19.2162182189        4.5611614569
  H        29.7123259125       19.5900320405       11.5316460313
  H        31.8313238378       15.7975511488       11.5449864549
  H        31.2237511070       15.5376368415        4.5167414086
  H        28.4935296665       17.6750982774        6.9921185518
  H        29.5645624119       15.7514553783        6.9543488052
  H        31.7407986391       19.7682361791        9.5461845762
  H        33.0683853721       17.3281569807        9.5875389468
  H        29.1976751434       16.6903305148        9.6727791517
  H        18.8534060263        0.8691555106        4.3403554892
  H        40.5281225733       35.2290155553       11.9467786122
  H        42.3250442283       34.4197648626       11.5846309334
  H        22.0874949072        0.6923633779        4.3568131773
  H        11.5971523509       18.7126244862        4.3880776260
  H        52.2651515120       18.4314167892       11.6722602972
  H        49.2555286429       16.4770618418       11.5790941845
  H        10.1498359249       15.7979438989        4.2982163928
  H        50.8510279851       17.6925279683       11.9489687472
  H        10.0456874466       17.3947267113        4.0568975338
  H        20.2147771676        0.0022062004        4.0469979754
  H        39.1841112550       36.1248897005       11.6816280193
 Ni        31.0742554614       17.8467268803       10.8343993485
 Ni        31.4063749993       16.3346317498        8.0770240415
 Ni        30.1139893727       18.7412850233        8.0799947604
 Ni        30.1422780874       17.3565918554        5.3245120975
  O        10.6499815258       14.3651061426       13.4805218520
  O        12.6133113300       14.6574569664       14.5788692491
  O        49.1479830387       16.8459512840       15.9836686026
  O        50.3503397520       20.9351740714       13.6431161075
  O        48.3487974709       20.5927325584       14.6604474377
  O        11.0514073822       17.0538103778       14.4956032906
  O        50.3204271369       20.8815323402        2.4110856800
  O        48.3479553566       20.5865753048        1.3314968413
  O        49.5447227400       18.2475434050        2.0735193537
  O        12.3592597034       18.6245047799        0.0049002565
  O        48.6934044329       14.1493282305       14.7460243085
  O         8.2097721114       14.2108810732        1.3273917096
  O        10.7356436011       14.5070178325        2.6698207054
  O        12.5719200946       14.5829998299        1.3338108985
  O        22.8448157730        2.0429291164       13.4822086401
  O        21.6065067034        3.5929138376       14.5839738406
  O        42.0582049812       34.1375058914       15.9735490863
  O        37.9819552225       33.1368437190       13.5667278839
  O        39.2178054872       31.5759843289       14.6619803209
  O        20.3082904226        1.0396073361       14.4971426013
  O        38.0244331927       33.1851649503        2.4208569637
  O        39.2195393471       31.5838530619        1.3316069166
  O        40.6533626160       33.7699796066        2.0654492220
  O        18.2555360993        1.3764928735        0.0022550120
  O        44.6221299836       35.1005741303       14.7536681114
  O        24.2054703705        0.0000797995        1.3258267648
  O        22.7529890665        2.0573830714        2.5887391252
  O        21.6243104225        3.5957243062        1.3480493439
  O        27.5030753531       18.7553585610       13.4869809134
  O        26.7634624900       16.9336517416       14.6440823498
  O        30.6341234431       19.3488924315        0.0734258416
  O        33.5877893064       16.2740862803       13.6604233371
  O        34.2749768848       18.1676257289       14.7315402645
  O        29.5739906801       17.0598008401       14.5686135578
  O        33.5557878824       16.3395591202        2.4263276643
  O        34.2995435615       18.2402106887        1.4138380298
  O        31.6486938412       18.3121572311        2.1643377032
  O        30.3226865051       15.1590269101        0.0933861448
  O        28.5568737353       21.0260022819       14.8959238831
  O        28.5148199581       20.9491257541        1.4190069439
  O        27.4591964641       18.6792572321        2.6641108550
  O        26.6909735006       16.9281137789        1.4211774463
  O        13.1479551096       18.6924457616        2.5926777669
  O        13.9195653441       16.9161782247        1.4105670755
  O        50.5964538338       19.3505886185        0.0255399705
  O        47.6829116031       16.3272811222        2.4238725787
  O        46.9514048866       18.1759339207        1.3303948432
  O        11.0701186997       17.0152974640        1.4939368693
  O        47.6751940071       16.3370680051       13.6467555775
  O        46.9270896199       18.2364699396       14.6587217161
  O        49.5677001093       18.3175903098       13.9777517974
  O        10.3194682092       15.1001429022        0.0033234443
  O        52.6706623295       21.0279049932        1.2469905087
  O        12.1470191183       20.8913292189       14.6681593609
  O        13.1086025538       18.6130915717       13.3199673744
  O        13.9580149593       16.9869900947       14.6600925245
  O        29.9951875681       14.4402691456        2.7307775561
  O        28.0881234491       14.6519856233        1.5005218442
  O        32.1321347406       16.8518490645        0.0840884351
  O        30.9586971702       20.9436624620        2.4176962664
  O        32.9414345963       20.6009968055        1.3421404763
  O        29.5644643358       17.0721549806        1.5785522316
  O        30.8688716749       20.9430028328       13.6560108143
  O        32.8739688074       20.5842437453       14.6641442235
  O        31.6826454261       18.2549520299       14.0064136058
  O        28.2649261587       18.6303155761        0.0829794625
  O        32.4904702958       14.2130816243        1.3352158236
  O        32.4050420876       14.2141130185       14.8166458862
  O        29.9259560111       14.4445326993       13.4884998099
  O        28.0426968278       14.5869225521       14.7446604784
  O        17.8890500427        1.9666664481        2.6674535541
  O        18.9562312440        3.5271413852        1.4130542797
  O        39.1679522602       34.1383679650        0.0023035164
  O        43.2802550807       33.0589352397        2.3370314589
  O        42.0345641857       31.5063119606        1.2467468071
  O        20.3176029769        1.0376182547        1.4849503504
  O        43.2760984859       33.1825201358       13.5695759780
  O        42.0050227492       31.5844781113       14.5779636160
  O        40.5794675970       33.7752164680       13.9307839505
  O        22.3675233359        1.3847701885        0.0034888122
  O        36.6731433861       35.0994864111        1.2383672695
  O        16.4457521313        0.0642920398       14.6631394813
  O        17.9366192606        2.0431555109       13.3216506683
  O        18.9188873427        3.5934465165       14.6608159208
  O        29.9804442251       18.8217936445       12.0653677510
  O        29.7812163156       18.7656257879        4.0773813659
  O        31.2931311889       16.4151634271       12.0763153020
  O        31.2250690107       16.4090371194        4.0767634888
  O        32.2366869415       16.8472329837        9.7354601155
  O        29.4413163049       16.8493804463        8.7419616546
  O        30.4146696926       15.8969524132        6.4868585823
  O        31.7545857449       18.1975997488        7.2471549556
  O        30.8769167102       19.3344627787        9.6632908727
  O        29.1046197084       18.3193113695        6.5731084603
  O        39.4569199404       35.2440338162       11.9969142983
  O        19.1412707516        0.0045441959        3.9959090942
  O        41.9694691701       35.1724816634       12.0820981292
  O        21.6912875707       -0.0693013339        3.9013692662
  O        51.3654279261       18.6144991682       12.0007068940
  O        10.7512767596       18.7472385777        3.9108377536
  O        50.0797856505       16.4135171170       12.0866367425
  O         9.5241654478       16.4830177598        3.9966603519
 Zr         9.2978646747       16.0521241937       14.1771205210
 Zr        49.8375291238       16.0070135489        1.7513775676
 Zr        22.0736152855        0.0310468945       14.1836684208
 Zr        42.4610453829       35.1541665010        1.8062379572
 Zr        29.6031437788       19.0764400796       14.2713615675
 Zr        29.5652445540       19.1506366528        1.8864116510
 Zr        11.0385004884       19.0514814620        1.8334744772
 Zr        11.0449897736       19.1545954132       14.2457656515
 Zr        31.3333498674       16.1041106528        1.8842710331
 Zr        31.3884595160       16.0199831151       14.2744558225
 Zr        18.6020456161       -0.0008392418        1.7685650034
 Zr        18.5068260750       -0.0071281227       14.2086526277
 Zr        12.3038402779       16.3237439631       15.9850028082
 Zr        48.6179996109       18.8330629364        0.0156153829
 Zr        20.3159272227        2.4748661355       15.9848679125
 Zr        40.6440147022       32.6880421989       15.9733104103
 Zr        28.3326975538       16.3307343958        0.0825839068
 Zr        32.6207758408       18.8314058276        0.0599773785
  H        32.5524540927       18.4832836387        7.7030361575
  H        31.7623325416       14.7855833800        8.3205799398
  H        32.4077255586       15.1216789241        7.8431807440
