     574
 i =      230, E =     -4778.8498539493
  C        11.8588483151       14.0534670504       13.7364590655
  C        12.4563508657       12.8905995898       13.0181652224
  C        11.7046145922       12.1715312780       12.0766364038
  C        12.2810214714       11.1093724358       11.3842686258
  C        13.6216555723       10.7397249832       11.6119014185
  C        14.3549099056       11.4434621153       12.5851780517
  C        13.7819859071       12.5084092236       13.2766992126
  C        14.2611709385        9.6490525227       10.8385183548
  C        14.2564445033        9.6569784516        9.4168245419
  C        13.7433020195       10.7591282411        8.6629374747
  C        49.1269746074       21.2331933608       13.8745029668
  C        48.5502689464       22.4011724611       13.1474283011
  C        49.3002092431       23.0683681430       12.1662946070
  C        48.7332833031       24.1075494164       11.4331378961
  C        47.4028379330       24.5093881891       11.6619760570
  C        46.6720334760       23.8607308322       12.6757426747
  C        47.2344909645       22.8157983670       13.4050364456
  C        46.7725276972       25.5870408912       10.8647124535
  C        46.7613900125       25.5573419266        9.4429569837
  C        47.2612678670       24.4422287451        8.6994559721
  C        14.8602764519        8.5705929623        8.7035484952
  C        14.8919714552        8.5971211579       11.5151668702
  C        49.1133379694       21.2035334406        2.1504236833
  C        48.5280071803       22.3649651741        2.8775591972
  C        49.2671058285       23.0254384797        3.8707307890
  C        48.6907802255       24.0599813992        4.6022187712
  C        47.3604648878       24.4569423782        4.3637732481
  C        46.6401909201       23.8123342943        3.3399629143
  C        47.2137607207       22.7764560049        2.6081690404
  C        46.7219508854       25.5318581815        5.1548022155
  C        46.7335730592       25.5281456085        6.5765060340
  C        47.2489845768       24.4289290727        7.3329046972
  C        40.6361546855       17.1587107828        7.3270754433
  C        40.6564146781       17.1849942705        4.5182761083
  C        11.8831218235       14.0865222513        2.2906483886
  C        12.4724817967       12.9108573001        2.9949485703
  C        11.7149543447       12.1775999194        3.9210146846
  C        12.2815810130       11.0951585247        4.5894027496
  C        13.6204431347       10.7215286556        4.3576021480
  C        14.3584296476       11.4371666688        3.3968648929
  C        13.7929678900       12.5183255632        2.7241967223
  C        14.2540081973        9.6247350070        5.1279682445
  C        14.2526547867        9.6446733475        6.5498041566
  C        13.7428163602       10.7536336425        7.2968913948
  C        22.5116733433        3.2441025364       13.7483098067
  C        23.2260863043        4.3491261184       13.0491834043
  C        24.2211298130        4.0688124109       12.1010967185
  C        24.8475524819        5.1084377030       11.4188918125
  C        24.4945826365        6.4500988534       11.6650313533
  C        23.5282191670        6.7219001563       12.6505010877
  C        22.8969608081        5.6841406659       13.3309721602
  C        25.0991145808        7.5566461289       10.8892159816
  C        25.0676565580        7.5508870041        9.4679214048
  C        24.3627174759        6.5529674930        8.7225943542
  C        38.3035751463       31.9296105337       13.8438170433
  C        37.5765104484       30.8388063459       13.1337236977
  C        36.6198949713       31.1401367528       12.1524573388
  C        36.0063407424       30.1178504448       11.4338357931
  C        36.3346111727       28.7695516895       11.6756880765
  C        37.2613499584       28.4756866002       12.6934816110
  C        37.8793119941       29.4966666817       13.4104711880
  C        35.7356383885       27.6760089584       10.8787168948
  C        35.7696234917       27.6896236627        9.4575401178
  C        36.4768133624       28.6912195617        8.7203455932
  C        25.6895314954        8.6211336671        8.7477693060
  C        25.6988962712        8.6300376448       11.5597594337
  C        38.3292712408       31.9622156458        2.1611970102
  C        37.6092807793       30.8877865611        2.9028614939
  C        36.6829365090       31.1941995300        3.9112664804
  C        36.0759439664       30.1738716259        4.6408810243
  C        36.3810836853       28.8220691575        4.3850320008
  C        37.2845492140       28.5256288198        3.3462352630
  C        37.8938400570       29.5424106578        2.6182020449
  C        35.7765931353       27.7211655863        5.1691038401
  C        35.7906596617       27.7127709311        6.5909504612
  C        36.4864326050       28.7026101400        7.3538318903
  C        46.1355016067       26.6207361591        7.2866603548
  C        46.0880722995       26.5802836141        4.4787759193
  C        22.4597994296        3.2558594896        2.2629641169
  C        23.1511387007        4.3651632665        2.9867025651
  C        24.1507097309        4.0805673571        3.9305765999
  C        24.7757581123        5.1118769891        4.6272329159
  C        24.4214504803        6.4572446035        4.4023502855
  C        23.4451489599        6.7350420079        3.4269174609
  C        22.8152326815        5.7040070346        2.7309405646
  C        25.0500887993        7.5562414209        5.1765346670
  C        25.0427386371        7.5503349238        6.5992615635
  C        24.3490281470        6.5537795299        7.3559916559
  C        26.6207432190       17.8612171300       13.7781003905
  C        25.3125841923       17.9055104880       13.0529143403
  C        25.0569080358       18.8976397785       12.0934216592
  C        23.8436925452       18.9187777592       11.4076649195
  C        22.8500128170       17.9506580238       11.6589101317
  C        23.1027086125       16.9806603412       12.6472411594
  C        24.3177760925       16.9543949041       13.3307302733
  C        21.5766839607       17.9362976752       10.8947290284
  C        21.5757598287       17.9117202092        9.4722016069
  C        22.7808686479       17.7855708647        8.7113974859
  C        34.4419662292       17.1943699109       13.9196633802
  C        35.7338211892       17.1545993514       13.1704799282
  C        35.9433606394       16.1879139982       12.1746609332
  C        37.1220590265       16.1840072682       11.4339992067
  C        38.1245286041       17.1440644534       11.6728449172
  C        37.9178876937       18.0915124445       12.6929102793
  C        36.7350069794       18.1021980652       13.4286410084
  C        39.3797897146       17.1559554634       10.8889061085
  C        39.3769702751       17.1754980902        9.4678760661
  C        38.1707648525       17.3024529174        8.7093596028
  C        20.3290808585       17.9294656455        8.7638119819
  C        20.3518350945       17.9410988297       11.5769492006
  C        34.4774843485       17.2476429468        2.1840928093
  C        35.7807467837       17.1798691143        2.9091440215
  C        35.9982282523       16.1974450619        3.8864739903
  C        37.1833136682       16.1852077127        4.6165009602
  C        38.1789551540       17.1543274452        4.3866630801
  C        37.9679422181       18.1120696037        3.3778221922
  C        36.7801531301       18.1296990470        2.6515504442
  C        39.4253456939       17.1754937348        5.1821167965
  C        39.4002535325       17.1862826536        6.6026083375
  C        38.1816976444       17.3057729672        7.3428207056
  C        35.1610013349       26.6332983445        7.2950020502
  C        35.1847157895       26.6514787057        4.4859899342
  C        26.5663906876       17.8239631780        2.3286874718
  C        25.2508629444       17.8694200022        3.0343757171
  C        24.9848608321       18.8765370993        3.9743394090
  C        23.7681527492       18.9001154663        4.6502781675
  C        22.7877864578       17.9171470034        4.4083261191
  C        23.0474887395       16.9354640266        3.4350191706
  C        24.2654841553       16.9092646126        2.7582822625
  C        21.5248162446       17.8986312627        5.1821148324
  C        21.5493570068       17.8911663244        6.6035220736
  C        22.7680172677       17.7758810594        7.3451736885
  C        14.0461157290       17.8284740515        2.2943227434
  C        15.3495166722       17.8844273037        3.0204939030
  C        15.6059734978       18.8871198623        3.9686917376
  C        16.8143824677       18.9067201220        4.6624075657
  C        17.8002740387       17.9264383719        4.4300070583
  C        17.5485198640       16.9479837179        3.4497448046
  C        16.3396428262       16.9237903609        2.7575439475
  C        19.0690732421       17.9086231047        5.1988649604
  C        19.0681369470       17.9072049763        6.6212569576
  C        17.8612786845       17.8103587039        7.3829712828
  C        46.8072304915       17.2205626189        2.1646454402
  C        45.5195198736       17.1655297843        2.9133111801
  C        45.3123092759       16.1928905893        3.9032849009
  C        44.1323459286       16.1838032967        4.6420492575
  C        43.1315488055       17.1475158479        4.4113284629
  C        43.3362296735       18.1000643680        3.3952528388
  C        44.5167666346       18.1131322080        2.6578675987
  C        41.8791210638       17.1668246551        5.1990040564
  C        41.8837235823       17.1677243462        6.6204396544
  C        43.0922035555       17.2579928993        7.3804603738
  C        20.3151683977       17.9180911413        7.3290225096
  C        20.2927563021       17.8872415542        4.5159700176
  C        46.7862922556       17.2313450298       13.8853101269
  C        45.4821667762       17.1283105548       13.1718874748
  C        45.2611881135       16.1343109571       12.2069216118
  C        44.0728675284       16.1142093732       11.4811293513
  C        43.0773616660       17.0850315899       11.7042804777
  C        43.2877701098       18.0473357871       12.7091745706
  C        44.4772460338       18.0740089965       13.4295751388
  C        41.8328559081       17.1170924140       10.9061238096
  C        41.8603003977       17.1403256661        9.4856662847
  C        43.0811203620       17.2423706584        8.7468343729
  C        46.1532822952       26.6371689697        8.7212089863
  C        46.1626216433       26.6561901159       11.5308388568
  C        14.0457419993       17.8322022042       13.7040451078
  C        15.3668257696       17.9076286429       13.0145735878
  C        15.6397088867       18.9230980257       12.0858579028
  C        16.8687627174       18.9609589805       11.4312930559
  C        17.8524606447       17.9825747885       11.6796997096
  C        17.5866576960       16.9965083982       12.6471497063
  C        16.3596075169       16.9580267047       13.3051825633
  C        19.1192695456       17.9572513572       10.9102691845
  C        19.0942281380       17.9309527824        9.4889286906
  C        17.8740655272       17.8208891874        8.7489204422
  C        28.8063365089       14.0898908790        2.3966149149
  C        28.1899724284       12.9179383186        3.0846029697
  C        28.9095415539       12.1789740056        4.0350845413
  C        28.3079974776       11.1052296397        4.6863586548
  C        26.9724746935       10.7474890133        4.4118963312
  C        26.2747382468       11.4668426881        3.4251803357
  C        26.8744087361       12.5404024027        2.7716519110
  C        26.3018875266        9.6690180370        5.1731122063
  C        26.2900748985        9.6954336908        6.5941547742
  C        26.7952285418       10.8076660640        7.3398899633
  C        32.1775870653       21.2402948889        2.1472309003
  C        32.7768537718       22.4047852172        2.8670510079
  C        32.0312561032       23.0828713508        3.8435176116
  C        32.6052223778       24.1199097727        4.5728237426
  C        33.9401901935       24.5067921357        4.3456811789
  C        34.6682342382       23.8472983769        3.3376510595
  C        34.0966144508       22.8046415646        2.6105745097
  C        34.5718939313       25.5807284204        5.1456758258
  C        34.5673576061       25.5507032843        6.5671342298
  C        34.0579658122       24.4359614282        7.3053773137
  C        25.6810345515        8.6174931553        7.3132463497
  C        25.6652056142        8.6182449908        4.5000280307
  C        32.1019786547       21.2278621942       13.8790715098
  C        32.6979375400       22.3758177286       13.1318266433
  C        31.9657362381       23.0380376054       12.1344234660
  C        32.5498841980       24.0652243405       11.3966749919
  C        33.8798743459       24.4610611071       11.6392329595
  C        34.5951481752       23.8121725765       12.6638270423
  C        34.0159004234       22.7788748378       13.3960409409
  C        34.5224689621       25.5413677113       10.8556416181
  C        34.5408413672       25.5311027381        9.4339532326
  C        34.0441803926       24.4270951224        8.6719029585
  C        40.6239983828       17.1487887538        8.7608339976
  C        40.6017485114       17.1434684848       11.5702525107
  C        28.7457628888       14.0656948635       13.8156645951
  C        28.1325730073       12.9199212897       13.0768119105
  C        28.8678741380       12.2221456255       12.1067877137
  C        28.2860225430       11.1669595095       11.4078849671
  C        26.9525217289       10.7831217952       11.6546843107
  C        26.2339311843       11.4687174896       12.6517228820
  C        26.8144393524       12.5247215411       13.3518981785
  C        26.3094346428        9.6932212731       10.8821980881
  C        26.2959620049        9.7072338325        9.4605176561
  C        26.7964500360       10.8142863292        8.7057129650
  C        18.1354284923        3.1810534966        2.3223002797
  C        17.4062036356        4.2782975553        3.0209401425
  C        16.3902305037        3.9999966906        3.9481888753
  C        15.7425283452        5.0399987899        4.6116665487
  C        16.0947133190        6.3836916058        4.3722242355
  C        17.0843941441        6.6531782710        3.4087583574
  C        17.7334517273        5.6158017067        2.7437197738
  C        15.4703710607        7.4913862921        5.1352629759
  C        15.4855471902        7.4906173587        6.5569728076
  C        16.1870215202        6.4969354364        7.3101273086
  C        42.9459945314       31.8596040174        2.0779708222
  C        43.6464089745       30.7719104706        2.8219527153
  C        44.5918458738       31.0932458467        3.8080951829
  C        45.1975327113       30.0877002516        4.5557926479
  C        44.8711846900       28.7346349925        4.3408516006
  C        43.9454545143       28.4202871130        3.3275585795
  C        43.3366549618       29.4254272491        2.5795033481
  C        45.4887351051       27.6553279896        5.1440573851
  C        45.4928075687       27.6808768456        6.5657501410
  C        44.8056656313       28.6888909423        7.3123694250
  C        14.8565963138        8.5631185857        7.2693325018
  C        14.8752599695        8.5632356398        4.4566612823
  C        42.9464892400       31.9616643252       13.8038918753
  C        43.6917569361       30.8854995903       13.0903946548
  C        44.6563317961       31.1914157113       12.1180881078
  C        45.2778813462       30.1718280383       11.4003675315
  C        44.9541526239       28.8215138165       11.6380446990
  C        44.0207290502       28.5238406721       12.6488701739
  C        43.3924429885       29.5406045380       13.3610315719
  C        45.5631608959       27.7240958798       10.8527968400
  C        45.5333189067       27.7173272991        9.4315030836
  C        44.8269595141       28.7075371038        8.6785548845
  C        35.1489824152       26.6223449995        8.7296510904
  C        35.1307858713       26.6007790539       11.5393457579
  C        18.1485697838        3.2470340925       13.7014308652
  C        17.4300299302        4.3438429602       12.9921162373
  C        16.4145785332        4.0525948920       12.0688066314
  C        15.7662880603        5.0832647396       11.3934652050
  C        16.1212289681        6.4284650538       11.6159551794
  C        17.1128960709        6.7118078614       12.5729159137
  C        17.7605660664        5.6828765237       13.2526553258
  C        15.4906738061        7.5241476488       10.8435432123
  C        15.4965393044        7.5075090124        9.4224151182
  C        16.1932033474        6.5057280133        8.6757302618
  H        10.6724373101       12.4655318095       11.8997091816
  H        11.6947633664       10.5507588896       10.6578102056
  H        15.3920363210       11.1690991393       12.7667313196
  H        14.3515600539       13.0718344724       14.0118974345
  H        13.3764145371       11.6312952054        9.1962667134
  H        50.3228485169       22.7481896762       11.9814130116
  H        49.3197445847       24.6227097629       10.6754679278
  H        45.6426729446       24.1617970496       12.8591718146
  H        46.6636056301       22.2907647253       14.1673593687
  H        47.6299127829       23.5758966483        9.2411338355
  H        14.8724592399        8.5884392598       12.6034758927
  H        50.2870860718       22.7024361786        4.0657604218
  H        49.2691257566       24.5752617871        5.3658763951
  H        45.6109079815       24.1098482319        3.1506822574
  H        46.6530887974       22.2545486372        1.8363296677
  H        47.6078341024       23.5518393699        6.8020086181
  H        40.6633545337       17.1505417465        3.4305546149
  H        48.6871694598       14.0950069348       15.7949604081
  H        10.6814440551       12.4665719300        4.0983537130
  H        11.6898276427       10.5246535028        5.3020438046
  H        15.3939165809       11.1594332937        3.2110075695
  H        14.3653609581       13.0877983362        1.9957908813
  H        13.3761376507       11.6223156335        6.7582601703
  H        47.9302778811       14.2184091756        1.7160668618
  H        47.7801399107       14.3739527656       14.4902507074
  H        49.0847851658       18.5529505579        2.8727989703
  H        10.4164048666       14.1342393342        0.0038375553
  H        24.4808360029        3.0301448917       11.9090803184
  H        25.6191083914        4.8914670892       10.6833464559
  H        23.2489827118        7.7550004711       12.8467716940
  H        22.1283261098        5.8841570801       14.0734663030
  H        23.8016512211        5.7965066935        9.2635010531
  H        36.3823608299       32.1828114713       11.9550746233
  H        35.2641808262       30.3544837480       10.6745809690
  H        37.5220288420       27.4371951482       12.8868957360
  H        38.6209004315       29.2783335880       14.1751979630
  H        37.0426274926       29.4403645299        9.2665042964
  H        25.7366474031        8.6117527219       12.6474554249
  H        36.4597715275       32.2379045332        4.1208202718
  H        35.3522784628       30.4166031774        5.4158736034
  H        37.5315796209       27.4859273781        3.1419638815
  H        38.6143337940       29.3189729854        1.8352199245
  H        37.0606571265       29.4601062676        6.8281596308
  H        46.1096469716       26.5877936898        3.3907467433
  H        44.6683073076       35.1162567380       15.8088498699
  H        24.4285342111        3.0426746623        4.0996291583
  H        25.5546369581        4.8845030715        5.3519303308
  H        23.1604092821        7.7692357237        3.2442803958
  H        22.0455497866        5.9154575209        1.9922721968
  H        23.7768468055        5.7984973692        6.8250918741
  H        44.9539488138       34.3905197065        1.7003956998
  H        44.9018009863       34.2067781604       14.4856421093
  H        40.6661247365       33.2092543085        2.8583338235
  H        23.1502295176        1.9581605039        0.0104974460
  H        25.8227885840       19.6456476912       11.9009444751
  H        23.6501596205       19.6950276763       10.6703194804
  H        22.3477267282       16.2237408905       12.8500859929
  H        24.5237941381       16.1917803716       14.0782392205
  H        23.7211999243       17.6666786462        9.2417461094
  H        35.1669764984       15.4477277206       11.9955222599
  H        37.2856562572       15.4262109311       10.6707787123
  H        38.6847191233       18.8402751082       12.8807657690
  H        36.5575621541       18.8472763336       14.2008542767
  H        37.2324148109       17.4274413102        9.2420338621
  H        20.3589332732       17.9834517415       12.6647196124
  H        35.2195297685       15.4597400204        4.0665501427
  H        37.3535261955       15.4202392648        5.3710169173
  H        38.7316130669       18.8656947992        3.1968236131
  H        36.5934394878       18.8856921761        1.8924252174
  H        37.2516183841       17.4316839874        6.7960650044
  H        35.1535883967       26.6792228546        3.3984371287
  H        28.5007323935       21.0769027233       15.9702770034
  H        25.7438953546       19.6341940670        4.1557167386
  H        23.5611770552       19.6851175966        5.3744709758
  H        22.2982907598       16.1702493661        3.2423090843
  H        24.4828959706       16.1397354091        2.0213349285
  H        23.6985734712       17.6493751910        6.7999772811
  H        29.0160969738       21.7121522283        1.7607185001
  H        29.1744529150       21.7309290984       14.6267157778
  H        32.1146767533       18.5762311672        2.9737140663
  H        27.3670206122       19.0234691507        0.0811031934
  H        14.8479714946       19.6466736767        4.1465250242
  H        17.0099653513       19.6905127188        5.3910641242
  H        18.2995066309       16.1834673305        3.2613748667
  H        16.1336025785       16.1552348562        2.0163948895
  H        16.9185025140       17.6946822143        6.8562274453
  H        46.0927302041       15.4580368639        4.0864240776
  H        43.9704827084       15.4220151545        5.4014651101
  H        42.5707420675       18.8517604768        3.2142917406
  H        44.6929694510       18.8623967754        1.8897253756
  H        44.0346073449       17.3709841904        6.8521629893
  H        20.2863679023       17.9161273225        3.4278212797
  H        46.0364871951       15.3931324747       12.0266339954
  H        43.9035365660       15.3439958366       10.7318112254
  H        42.5231515550       18.8004740070       12.8876986111
  H        44.6629254389       18.8364331719       14.1820138052
  H        44.0150831939       17.3421189460        9.2922476903
  H        46.1996476594       26.6828460699       12.6182753067
  H        52.7413419505       21.0627029003        0.1998137834
  H        14.8787239730       19.6762171124       11.8936067097
  H        17.0796252062       19.7511227165       10.7138795714
  H        18.3378791687       16.2351112277       12.8467532275
  H        16.1388898878       16.1836721720       14.0358191606
  H        16.9408333293       17.7133434673        9.2935103201
  H        52.3228761102       21.6734984659       14.2890694454
  H        52.0135738149       21.7023571194        1.5007772344
  H        49.0681169934       18.6079037228       13.1988461210
  H        13.2480091572       19.0160742316       15.9724139718
  H        29.9379057866       12.4612195248        4.2491844284
  H        28.8674915710       10.5303183134        5.4211145611
  H        25.2429194544       11.2000665388        3.2058234929
  H        26.3341127728       13.1171820782        2.0249510125
  H        27.1572732267       11.6764444010        6.7985900556
  H        31.0054341605       22.7707812882        4.0247045199
  H        32.0220273537       24.6458423706        5.3256364003
  H        35.7012913021       24.1372926563        3.1567831095
  H        34.6635420993       22.2696420570        1.8520816201
  H        33.6995753322       23.5692555756        6.7575066695
  H        25.6954315068        8.5985322012        3.4120419877
  H        30.9402539372       22.7295025009       11.9448461951
  H        31.9749097045       24.5802605492       10.6301036933
  H        35.6246064747       24.1070063981       12.8567596532
  H        34.5727842838       22.2557406146       14.1699946838
  H        33.6751519656       23.5532792883        9.2012125713
  H        40.5931202766       17.0996232521       12.6576574704
  H        32.5135205410       14.1408612904        0.2622463849
  H        29.8970851111       12.5205770858       11.9206327690
  H        28.8638959116       10.6211856352       10.6650976774
  H        25.2020749540       11.1850876708       12.8487053096
  H        26.2567914241       13.0702142213       14.1095593435
  H        27.1582951854       11.6880208102        9.2397657778
  H        33.3113085367       14.2283237718       14.4609777914
  H        33.4094689910       14.4111324004        1.6081457081
  H        32.1735928772       18.5586300470       13.2266504992
  H        30.2144050801       14.1842813748        0.0820246153
  H        16.1179514513        2.9635237233        4.1344193018
  H        14.9528771803        4.8206982972        5.3271267422
  H        17.3671256494        7.6860181655        3.2158790121
  H        18.5157469999        5.8184249833        2.0161416177
  H        16.7535827772        5.7396110360        6.7766141992
  H        44.8280604535       32.1403453639        3.9822866939
  H        45.9373456835       30.3414938664        5.3117779363
  H        43.6828656661       27.3782018628        3.1573873174
  H        42.6001271971       29.1901112090        1.8147469408
  H        44.2303755813       29.4367005242        6.7740503574
  H        14.8516425664        8.5465654147        3.3684360216
  H        44.8998624012       32.2341034402       11.9266327143
  H        46.0247858627       30.4130612227       10.6471271363
  H        43.7638821612       27.4841010855       12.8405240016
  H        42.6460209834       29.3178532878       14.1195646643
  H        44.2684951105       29.4704471530        9.2131541830
  H        35.0859878468       26.6145587526       12.6267046424
  H        36.6051565048       35.1340544851        0.1857396295
  H        16.1432914673        3.0130396746       11.8992826334
  H        14.9737837221        4.8564833597       10.6835634385
  H        17.3967064972        7.7472382633       12.7495314693
  H        18.5437171445        5.8933196964       13.9771260054
  H        16.7646396609        5.7554936614        9.2141736474
  H        36.2785524748       34.4825635108       14.2679742726
  H        36.3808688913       34.2092207509        1.5047973243
  H        40.5805864141       33.2028422097       13.1482849953
  H        17.4707707313        1.9478024650       15.9690082563
  H        28.9975116528       19.3257601030        4.5050235337
  H        29.7484400104       19.6927892488       11.5914746054
  H        31.7907340288       15.6281428787       11.5670248707
  H        31.1333824427       15.4960225047        4.4441861135
  H        28.0536337026       17.9386410855        6.6859441896
  H        29.4068246069       15.3312915908        6.5371005219
  H        31.6703471307       19.8865488292        9.4454384236
  H        33.1120309503       16.8527580972        9.5363897087
  H        28.8451583803       16.8036483945        9.2834957909
  H        18.8534195804        0.8690313072        4.3403364736
  H        40.5280674666       35.2289747859       11.9469046685
  H        42.3244382120       34.4193193656       11.5850197716
  H        22.0875830421        0.6922483298        4.3566945155
  H        11.5966978289       18.7130444072        4.3877998525
  H        52.2650129318       18.4312230338       11.6720268088
  H        49.2550650951       16.4769017358       11.5794523567
  H        10.1502724171       15.7983187219        4.2978527482
  H        50.8502355774       17.6924820213       11.9490819569
  H        10.0462157782       17.3946169289        4.0570235253
  H        20.2147060894        0.0022287969        4.0470773336
  H        39.1837624538       36.1244898410       11.6813849824
 Ni        30.8627486145       17.7187834498       10.9815953339
 Ni        31.2430167229       16.4222587075        7.8339421305
 Ni        29.9715859402       18.7713786396        7.9982814057
 Ni        30.2221421445       17.4535555666        5.1664323757
  O        10.6499806182       14.3650663943       13.4807166430
  O        12.6131935821       14.6575038590       14.5788141894
  O        49.1481618902       16.8458414008       15.9846158791
  O        50.3503365074       20.9358075194       13.6428799746
  O        48.3486133529       20.5933940285       14.6607947156
  O        11.0518410411       17.0537873289       14.4956363431
  O        50.3210498472       20.8816512584        2.4119681180
  O        48.3467829824       20.5868024664        1.3322513054
  O        49.5438596244       18.2484099572        2.0733556614
  O        12.3593586709       18.6247125730        0.0047896354
  O        48.6932708611       14.1485850621       14.7462138265
  O         8.2099228984       14.2103822964        1.3276548930
  O        10.7354112694       14.5067459864        2.6694474483
  O        12.5717789619       14.5828539636        1.3335836581
  O        22.8444205158        2.0429082556       13.4822472339
  O        21.6052132068        3.5919978730       14.5848646596
  O        42.0583278633       34.1375084951       15.9739181692
  O        37.9818878960       33.1375797437       13.5673224736
  O        39.2185195371       31.5763233809       14.6619398534
  O        20.3083917197        1.0395393872       14.4970239064
  O        38.0246360254       33.1856561446        2.4203652809
  O        39.2194623730       31.5840117783        1.3312376672
  O        40.6523328874       33.7694150259        2.0653587188
  O        18.2554804202        1.3766882015        0.0018697390
  O        44.6222632585       35.1005529904       14.7536588521
  O        24.2054150071        0.0000312848        1.3259043615
  O        22.7528421425        2.0578744537        2.5889146780
  O        21.6241162268        3.5957200996        1.3471814928
  O        27.4933989659       18.7523983717       13.4938394999
  O        26.7626539808       16.9301603012       14.6465488393
  O        30.6419917741       19.3548415728        0.0728280602
  O        33.5949013314       16.2727698625       13.6674426413
  O        34.2744326412       18.1703594491       14.7315545636
  O        29.5757694886       17.0601934683       14.5708797899
  O        33.6225717140       16.3295525786        2.4160612071
  O        34.3051805772       18.2487163622        1.4102558848
  O        31.6513478944       18.3126732610        2.1626692817
  O        30.3195305676       15.1495689233        0.0931625984
  O        28.5539272694       21.0304962862       14.8987795160
  O        28.5114223548       20.9560654422        1.4152736604
  O        27.4518132380       18.6768412421        2.6645835861
  O        26.6917891476       16.9254912836        1.4197989302
  O        13.1483263539       18.6929746160        2.5924841359
  O        13.9190594621       16.9162425324        1.4100553639
  O        50.5966081899       19.3503511633        0.0255258205
  O        47.6835189581       16.3270210089        2.4224344354
  O        46.9526642561       18.1761686852        1.3289823431
  O        11.0699330493       17.0154870139        1.4947061807
  O        47.6759552306       16.3355692770       13.6478720864
  O        46.9284618501       18.2358991217       14.6602798244
  O        49.5689913437       18.3176918138       13.9771271146
  O        10.3187478396       15.1000726209        0.0021569295
  O        52.6707975178       21.0279125041        1.2469229858
  O        12.1468383011       20.8912587137       14.6681709242
  O        13.1079735241       18.6136900163       13.3205781711
  O        13.9571806958       16.9870342943       14.6603158498
  O        29.9907883015       14.4384584877        2.7356588730
  O        28.0880911629       14.6529342704        1.5002111276
  O        32.1436403855       16.8529509975        0.0867582749
  O        30.9650351823       20.9535178614        2.4121252970
  O        32.9457808972       20.6009562260        1.3418548764
  O        29.5667287550       17.0708276067        1.5814638960
  O        30.8717916560       20.9496673183       13.6601458404
  O        32.8767357752       20.5853704140       14.6625012380
  O        31.6853049691       18.2515235897       14.0056993904
  O        28.2564957580       18.6348714741        0.0828420765
  O        32.4945365296       14.2112575699        1.3358454406
  O        32.4082868472       14.2103664006       14.8201574069
  O        29.9175093147       14.4343259616       13.4881739802
  O        28.0376849265       14.5883090665       14.7484308753
  O        17.8892087479        1.9666724201        2.6679795063
  O        18.9561853343        3.5272072049        1.4131129490
  O        39.1685990143       34.1389212520        0.0023084921
  O        43.2802326479       33.0590005795        2.3368081498
  O        42.0346033092       31.5064368140        1.2467681994
  O        20.3176745513        1.0367603260        1.4852537547
  O        43.2761198132       33.1825835292       13.5697585207
  O        42.0053084126       31.5840800653       14.5778589226
  O        40.5790520285       33.7750580038       13.9307396355
  O        22.3673391906        1.3846004687        0.0030793718
  O        36.6727733171       35.0998027230        1.2383762306
  O        16.4455976035        0.0642674512       14.6631912543
  O        17.9364718861        2.0433763868       13.3212438768
  O        18.9189565803        3.5932029155       14.6607698130
  O        29.8629132645       18.9041884553       12.1517223238
  O        29.7530327152       18.9738382389        3.9979350354
  O        31.3740592459       16.2806244628       12.1561747631
  O        31.3523663860       16.3387065364        3.9960050844
  O        32.1544972483       16.7005284259        9.5070008507
  O        29.7306592749       17.2065141352        9.2373223489
  O        30.2836087849       15.6890544984        6.3265607780
  O        31.4250908632       18.1005678713        6.7344188675
  O        30.8320508158       19.4155067925        9.5766942928
  O        28.8889187774       18.3947884281        6.4965184525
  O        39.4568180665       35.2437859973       11.9968333313
  O        19.1413173958        0.0045343142        3.9956611689
  O        41.9695151999       35.1726811259       12.0820160211
  O        21.6913296265       -0.0692997673        3.9011082701
  O        51.3651810474       18.6142758588       12.0002134416
  O        10.7509896126       18.7471847814        3.9100484520
  O        50.0794929038       16.4127228938       12.0866770989
  O         9.5243714721       16.4831453319        3.9962860953
 Zr         9.2977316524       16.0526883797       14.1774506422
 Zr        49.8371226109       16.0065754338        1.7513520726
 Zr        22.0734000525        0.0302725232       14.1838455915
 Zr        42.4610645899       35.1538923496        1.8061701281
 Zr        29.5901453991       19.0880724961       14.2848670552
 Zr        29.5618567264       19.1664195258        1.8697172115
 Zr        11.0387317452       19.0518878853        1.8328727223
 Zr        11.0447309761       19.1547337004       14.2457013984
 Zr        31.3520186060       16.0980551414        1.8710159426
 Zr        31.3921161072       16.0037584730       14.2951282930
 Zr        18.6012807388       -0.0009163120        1.7684083309
 Zr        18.5066057967       -0.0073075287       14.2086846361
 Zr        12.3029079546       16.3235940756       15.9851592075
 Zr        48.6178787249       18.8333863668        0.0152140012
 Zr        20.3151658437        2.4738280250       15.9853445603
 Zr        40.6438061219       32.6876280053       15.9731866418
 Zr        28.3394615803       16.3354724162        0.0833877116
 Zr        32.6220756573       18.8343191320        0.0625188609
  H        32.2944412013       18.5263317398        6.6536410155
  H        32.8396937821       15.6845429723        6.5472148352
  H        33.1015163197       15.5857788545        7.2537672387
