     576
 i =      311, E =     -4780.0348153783
  C        11.8587176776       14.0535327616       13.7364552018
  C        12.4562119135       12.8906089785       13.0181604122
  C        11.7044719488       12.1715892010       12.0766033356
  C        12.2808626405       11.1093983123       11.3842524293
  C        13.6214760601       10.7396886776       11.6119109007
  C        14.3547099769       11.4433937927       12.5852252090
  C        13.7818196277       12.5083727758       13.2767270006
  C        14.2609978995        9.6490047147       10.8385357835
  C        14.2563193269        9.6569243381        9.4168385918
  C        13.7431989652       10.7590769240        8.6629450704
  C        49.1268754779       21.2331634083       13.8746156527
  C        48.5501431275       22.4011428538       13.1475567347
  C        49.3001110360       23.0683295794       12.1664241648
  C        48.7331902545       24.1074758655       11.4332187516
  C        47.4027183949       24.5092721409       11.6619822955
  C        46.6718562968       23.8605906415       12.6756916357
  C        47.2343070447       22.8156891358       13.4050481685
  C        46.7724623602       25.5869572164       10.8647058946
  C        46.7613880644       25.5573097997        9.4429404431
  C        47.2613748617       24.4422517090        8.6994244627
  C        14.8602710601        8.5705943935        8.7035765932
  C        14.8917831842        8.5970718737       11.5151950121
  C        49.1132276863       21.2034251366        2.1504670663
  C        48.5278537083       22.3648082242        2.8776075315
  C        49.2670830693       23.0254587704        3.8705653828
  C        48.6907845193       24.0600333401        4.6020250458
  C        47.3604021830       24.4568880043        4.3637461228
  C        46.6400017234       23.8120638384        3.3401585153
  C        47.2135241851       22.7761382569        2.6083736714
  C        46.7219520613       25.5318459061        5.1547846481
  C        46.7336366878       25.5281654335        6.5764902652
  C        47.2490846552       24.4289556972        7.3328708317
  C        40.6221121778       17.0971667926        7.3117337715
  C        40.6300310121       17.1084687436        4.5021472880
  C        11.8830179109       14.0865587033        2.2906176500
  C        12.4723823793       12.9108255808        2.9948921708
  C        11.7148744427       12.1775658292        3.9209638877
  C        12.2815016270       11.0951268700        4.5893663311
  C        13.6203590530       10.7214819971        4.3575959490
  C        14.3583347746       11.4371398937        3.3968650276
  C        13.7928772241       12.5182991986        2.7241800468
  C        14.2539578204        9.6247133145        5.1279873666
  C        14.2525816779        9.6446418441        6.5498264390
  C        13.7427031026       10.7535888272        7.2969010301
  C        22.5137806656        3.2441563484       13.7488287875
  C        23.2336428181        4.3473349238       13.0511676569
  C        24.2314987513        4.0626103411       12.1071773679
  C        24.8645650175        5.0988840854       11.4258556341
  C        24.5157993411        6.4423245229       11.6683841971
  C        23.5463420631        6.7186059965       12.6497126893
  C        22.9084866213        5.6840127066       13.3294786802
  C        25.1265632607        7.5456183951       10.8918269762
  C        25.0954656873        7.5386655471        9.4704015317
  C        24.3875144666        6.5421515915        8.7259618418
  C        38.3031814526       31.9299021131       13.8434873800
  C        37.5748922820       30.8404078356       13.1326837664
  C        36.6171829869       31.1440773767       12.1530943477
  C        36.0014027216       30.1236063144       11.4338264112
  C        36.3284176772       28.7745475416       11.6731221519
  C        37.2566035699       28.4783605891       12.6890038935
  C        37.8766913359       29.4975298607       13.4068531654
  C        35.7266780237       27.6824936859       10.8759906192
  C        35.7582087573       27.6969224629        9.4546840075
  C        36.4644133345       28.6986305235        8.7167463612
  C        25.7194342798        8.6070847908        8.7491086882
  C        25.7293089881        8.6182307880       11.5611919947
  C        38.3285110683       31.9621044168        2.1606087283
  C        37.6066337908       30.8881183406        2.9009106084
  C        36.6778347036       31.1954060121        3.9068408959
  C        36.0686487982       30.1757335526        4.6354337389
  C        36.3741373179       28.8236345352        4.3814757434
  C        37.2798747509       28.5262880143        3.3448975235
  C        37.8912255478       29.5424367939        2.6176165708
  C        35.7680539081       27.7238284462        5.1659097603
  C        35.7795052976       27.7180315307        6.5878350728
  C        36.4741821355       28.7090230513        7.3502148530
  C        46.1355843060       26.6207705024        7.2866383653
  C        46.0879940809       26.5802097175        4.4787376021
  C        22.4604945727        3.2557090970        2.2632213349
  C        23.1539565670        4.3637672805        2.9874436847
  C        24.1558701734        4.0764194653        3.9280693257
  C        24.7840015004        5.1055428037        4.6252256055
  C        24.4304841753        6.4518002819        4.4043761219
  C        23.4513257197        6.7324217328        3.4325250422
  C        22.8184994670        5.7034818494        2.7358582730
  C        25.0635355439        7.5485980488        5.1783406195
  C        25.0633008176        7.5397335327        6.6012079031
  C        24.3706995563        6.5434320150        7.3593768269
  C        26.6252170951       17.8604211669       13.7671693628
  C        25.3159638321       17.9120703408       13.0462113154
  C        25.0569256429       18.9063176697       12.0899099006
  C        23.8418421538       18.9281226826       11.4074516568
  C        22.8495495214       17.9586890632       11.6589670297
  C        23.1045971829       16.9879274410       12.6458779824
  C        24.3213134727       16.9609710961       13.3258520391
  C        21.5760102816       17.9422165824       10.8951707957
  C        21.5758159215       17.9140455992        9.4727820077
  C        22.7814018157       17.7853496611        8.7131525788
  C        34.4419867785       17.1937162343       13.9138185318
  C        35.7346509177       17.1461875988       13.1666301702
  C        35.9444838968       16.1703263017       12.1797011494
  C        37.1239325639       16.1580952524       11.4402709784
  C        38.1272283119       17.1199718520       11.6688350210
  C        37.9205026050       18.0766726331       12.6805332881
  C        36.7375398391       18.0945723347       13.4165634322
  C        39.3805582106       17.1262095803       10.8803703132
  C        39.3721979059       17.1299759654        9.4587469687
  C        38.1625795034       17.2459622634        8.7038674357
  C        20.3294876214       17.9300256440        8.7637595354
  C        20.3510262576       17.9469504065       11.5770083258
  C        34.4371396457       17.2401547623        2.1914489418
  C        35.7385693417       17.1426623713        2.9177448210
  C        35.9476828638       16.1588240139        3.8953315644
  C        37.1388393359       16.1282067412        4.6170225072
  C        38.1495122844       17.0806640806        4.3806031950
  C        37.9462108380       18.0383656257        3.3697818268
  C        36.7544954505       18.0734726911        2.6516567033
  C        39.4006362106       17.0958811569        5.1710970925
  C        39.3825619947       17.1147398349        6.5921563850
  C        38.1672662796       17.2371528150        7.3373712627
  C        35.1492592312       26.6394199014        7.2926162096
  C        35.1780170804       26.6526120384        4.4834483745
  C        26.5705858605       17.8244565959        2.3287802121
  C        25.2563369541       17.8657935243        3.0385428748
  C        24.9908112786       18.8712633670        3.9803619639
  C        23.7733516866       18.8950576052        4.6552444222
  C        22.7917584153       17.9137515199        4.4107961252
  C        23.0518858621       16.9327782444        3.4369711915
  C        24.2704780759       16.9066387289        2.7611103756
  C        21.5276058646       17.8957848500        5.1829417803
  C        21.5509465479       17.8882899471        6.6043540961
  C        22.7690239371       17.7726336224        7.3469802956
  C        14.0465610270       17.8284489510        2.2942885030
  C        15.3506109156       17.8841625583        3.0200249133
  C        15.6078959324       18.8863022860        3.9686177243
  C        16.8167109421       18.9053815051        4.6618308975
  C        17.8025897522       17.9251560002        4.4287599166
  C        17.5500869071       16.9473879030        3.4479470850
  C        16.3407681928       16.9236804453        2.7562992289
  C        19.0714685029       17.9065389949        5.1979579920
  C        19.0697246629       17.9051890344        6.6204518346
  C        17.8625970142       17.8083242562        7.3818105826
  C        46.8027003581       17.2161137423        2.1612506959
  C        45.5085768912       17.1464893113        2.9004506730
  C        45.3022607894       16.1635762569        3.8808611275
  C        44.1179009211       16.1377490363        4.6125986161
  C        43.1092189381       17.0945637333        4.3863020252
  C        43.3117239900       18.0556771612        3.3774146917
  C        44.4971276042       18.0855359985        2.6466624702
  C        41.8565057773       17.1013219750        5.1768632135
  C        41.8666599243       17.1077649789        6.5989810004
  C        43.0776781956       17.2076016784        7.3539132192
  C        20.3163223110       17.9164258103        7.3289907534
  C        20.2958114312       17.8851369949        4.5159443957
  C        46.7859241194       17.2331074451       13.8809082037
  C        45.4852942078       17.1312233221       13.1591388274
  C        45.2676609605       16.1333859359       12.1968907111
  C        44.0812383613       16.1079400618       11.4677193031
  C        43.0825972179       17.0775635433       11.6831585569
  C        43.2916507305       18.0468786632       12.6820183948
  C        44.4789803544       18.0783969715       13.4066207031
  C        41.8349436014       17.0975691929       10.8878354887
  C        41.8558306396       17.1046018293        9.4665316922
  C        43.0726757992       17.2030890178        8.7207382167
  C        46.1533622252       26.6371874940        8.7211904549
  C        46.1624907106       26.6560773317       11.5308247069
  C        14.0455434191       17.8322996285       13.7040044794
  C        15.3664837808       17.9082025604       13.0141955501
  C        15.6380416522       18.9231284484       12.0845063417
  C        16.8668805030       18.9617896312       11.4295897174
  C        17.8517183537       17.9848075458       11.6788256410
  C        17.5872029121       16.9992436744       12.6471537383
  C        16.3602871830       16.9599043867       13.3054050987
  C        19.1187490069       17.9603872504       10.9097196391
  C        19.0943339926       17.9319523907        9.4883732447
  C        17.8746466912       17.8202368691        8.7477970366
  C        28.8071323776       14.0898111231        2.3945711943
  C        28.1909922579       12.9188039248        3.0856999648
  C        28.9218223424       12.1642965177        4.0152343109
  C        28.3240147416       11.0884896983        4.6669314460
  C        26.9814001036       10.7431503668        4.4123605133
  C        26.2709007182       11.4791766025        3.4475485187
  C        26.8667630168       12.5554195462        2.7944007107
  C        26.3166549734        9.6604808974        5.1734624999
  C        26.3147071897        9.6822768220        6.5943868344
  C        26.8273309191       10.7915600045        7.3394160825
  C        32.1785773319       21.2352621047        2.1480729278
  C        32.7770189281       22.3978323800        2.8715431439
  C        32.0268185661       23.0829834796        3.8394367417
  C        32.5982417213       24.1230766802        4.5664782713
  C        33.9353408103       24.5059623743        4.3456021114
  C        34.6685034925       23.8390724135        3.3463180256
  C        34.0992417321       22.7935070998        2.6215350896
  C        34.5642192163       25.5830335016        5.1439923009
  C        34.5567758957       25.5557427298        6.5654292247
  C        34.0467118847       24.4415654991        7.3040576666
  C        25.7067485529        8.6044132924        7.3144855353
  C        25.6752648201        8.6123231134        4.5010682377
  C        32.1038120869       21.2262478540       13.8742355998
  C        32.6974177504       22.3762739293       13.1284852998
  C        31.9620685605       23.0392616894       12.1338701086
  C        32.5429413161       24.0690460333       11.3970988358
  C        33.8730682041       24.4661430332       11.6374466134
  C        34.5912701971       23.8164339771       12.6594023048
  C        34.0149771836       22.7810848187       13.3911680442
  C        34.5130323225       25.5480159201       10.8537805073
  C        34.5294494156       25.5382950741        9.4320669868
  C        34.0327368535       24.4339366866        8.6705641621
  C        40.6163733516       17.1003538661        8.7463816237
  C        40.6058292141       17.1262374684       11.5564817176
  C        28.7550914779       14.0716251285       13.8082479152
  C        28.1504563533       12.9209777187       13.0698075806
  C        28.8914658932       12.2210050652       12.1055360397
  C        28.3157222778       11.1600751987       11.4099315959
  C        26.9825282892       10.7726838505       11.6535851575
  C        26.2585748109       11.4605061044       12.6451320025
  C        26.8330371359       12.5216364921       13.3423387531
  C        26.3426305242        9.6794137401       10.8826261076
  C        26.3294359247        9.6920232913        9.4608883591
  C        26.8322277005       10.7976139628        8.7051994078
  C        18.1354851584        3.1810457984        2.3222774225
  C        17.4062139874        4.2783011770        3.0208965729
  C        16.3904659309        3.9999570154        3.9483890225
  C        15.7427470163        5.0399451272        4.6118783079
  C        16.0946920732        6.3836667275        4.3722219859
  C        17.0840691543        6.6531814167        3.4084472496
  C        17.7331497325        5.6158247391        2.7433988643
  C        15.4703620810        7.4913626679        5.1352705174
  C        15.4855553434        7.4906282964        6.5569862373
  C        16.1870681659        6.4969880787        7.3101660496
  C        42.9459123149       31.8595292327        2.0779902444
  C        43.6463055241       30.7718606104        2.8219676619
  C        44.5917916584       31.0931903024        3.8080731852
  C        45.1975005753       30.0876400687        4.5557360555
  C        44.8711133709       28.7345728930        4.3408398720
  C        43.9453091823       28.4202338587        3.3276084709
  C        43.3364809943       29.4253778913        2.5795764222
  C        45.4887008503       27.6552738433        5.1440307541
  C        45.4928408232       27.6808816909        6.5657253367
  C        44.8056985818       28.6888895110        7.3123518260
  C        14.8565590735        8.5631022780        7.2693547360
  C        14.8751659702        8.5631858384        4.4566862675
  C        42.9464735335       31.9616051092       13.8038797665
  C        43.6917175709       30.8854697973       13.0903809280
  C        44.6562671615       31.1913623664       12.1180361388
  C        45.2778178625       30.1717653069       11.4003403032
  C        44.9540842200       28.8214469240       11.6380426712
  C        44.0206499945       28.5237872411       12.6488700099
  C        43.3923674307       29.5405729876       13.3610082844
  C        45.5631071637       27.7240377557       10.8527886692
  C        45.5333516468       27.7173178158        9.4314899555
  C        44.8269685496       28.7075083942        8.6785377267
  C        35.1368600055       26.6296384819        8.7272858646
  C        35.1225660817       26.6070290203       11.5369924305
  C        18.1486325507        3.2470526760       13.7014828072
  C        17.4299881918        4.3438816559       12.9922762031
  C        16.4147333357        4.0525907944       12.0687539089
  C        15.7664193498        5.0832158979       11.3933642575
  C        16.1210963816        6.4284545992       11.6160683682
  C        17.1125531955        6.7118531166       12.5732409795
  C        17.7602400714        5.6829471701       13.2530109298
  C        15.4906012990        7.5241368029       10.8436023587
  C        15.4964801933        7.5074881189        9.4224675638
  C        16.1932502895        6.5057882259        8.6757717280
  H        10.6723124361       12.4656443155       11.8996476630
  H        11.6945778561       10.5508152415       10.6577890409
  H        15.3918114425       11.1689714451       12.7668220711
  H        14.3513812011       13.0717697013       14.0119540816
  H        13.3762270276       11.6312116141        9.1962690148
  H        50.3227638200       22.7481718236       11.9815675833
  H        49.3196459718       24.6226348892       10.6755451782
  H        45.6424503483       24.1615520474       12.8590431518
  H        46.6633801116       22.2906176108       14.1673239300
  H        47.6299422192       23.5758768778        9.2410931100
  H        14.8721890041        8.5883652580       12.6035035065
  H        50.2871115505       22.7025561460        4.0654923861
  H        49.2691931539       24.5754566574        5.3655391570
  H        45.6106346050       24.1093997301        3.1510320962
  H        46.6527073207       22.2540404021        1.8367622871
  H        47.6079315739       23.5518658488        6.8019690140
  H        40.6325052454       17.0718560552        3.4144045224
  H        48.6871575444       14.0950785639       15.7949495807
  H        10.6813700042       12.4665538543        4.0983010574
  H        11.6897263844       10.5246475337        5.3020066315
  H        15.3938247281       11.1594082476        3.2110235028
  H        14.3652755532       13.0877779451        1.9957790559
  H        13.3759844187       11.6222473446        6.7582625606
  H        47.9301941985       14.2187866465        1.7159749012
  H        47.7800128970       14.3740537846       14.4903433815
  H        49.0830154571       18.5520395677        2.8722436008
  H        10.4161398416       14.1343521573        0.0039179264
  H        24.4883099214        3.0227920245       11.9175372468
  H        25.6380373175        4.8775915797       10.6935934554
  H        23.2697541603        7.7529132410       12.8434424287
  H        22.1377480065        5.8882823203       14.0686953637
  H        23.8262798172        5.7864250570        9.2677073458
  H        36.3804045033       32.1872679689       11.9576042815
  H        35.2582664951       30.3622980664       10.6761758017
  H        37.5164680732       27.4393070987       12.8804959293
  H        38.6190355532       29.2770551428       14.1702480826
  H        37.0300456482       29.4483283830        9.2623375175
  H        25.7655959452        8.6017250086       12.6489814910
  H        36.4545255863       32.2392964738        4.1152793766
  H        35.3431236071       30.4192199854        5.4084407136
  H        37.5270997776       27.4863795561        3.1419119714
  H        38.6133957334       29.3181509930        1.8364154576
  H        37.0482874836       29.4663718978        6.8242347413
  H        46.1094351896       26.5876365266        3.3907015089
  H        44.6682187321       35.1161590175       15.8088751087
  H        24.4333032392        3.0379260600        4.0940320495
  H        25.5649157065        4.8756485534        5.3469381031
  H        23.1667350079        7.7672062496        3.2529836148
  H        22.0468946967        5.9174125335        1.9998794886
  H        23.7959296940        5.7892909586        6.8296244544
  H        44.9536056471       34.3902125053        1.7001850731
  H        44.9014633870       34.2066112355       14.4856686411
  H        40.6657390613       33.2089996575        2.8581614864
  H        23.1505417848        1.9578069955        0.0106972399
  H        25.8205654579       19.6561485355       11.8964851781
  H        23.6460443498       19.7052235551       10.6716253779
  H        22.3504791919       16.2303950958       12.8495458783
  H        24.5294107171       16.1971597817       14.0714626008
  H        23.7213536993       17.6662973399        9.2442606501
  H        35.1668171076       15.4307147798       12.0043853986
  H        37.2863911865       15.3929492409       10.6841913854
  H        38.6869900430       18.8275492995       12.8612945028
  H        36.5612658111       18.8471491718       14.1817707803
  H        37.2260623582       17.3736454406        9.2390760880
  H        20.3575579387       17.9911763986       12.6647090214
  H        35.1591266827       15.4340383004        4.0849861858
  H        37.3003146540       15.3614836153        5.3716973378
  H        38.7195870772       18.7802340620        3.1816736329
  H        36.5765846182       18.8305288736        1.8917279199
  H        37.2341380137       17.3573674135        6.7945376833
  H        35.1496697209       26.6778324313        3.3957532394
  H        28.4942077877       21.0689440547       15.8757638212
  H        25.7511661096       19.6275072761        4.1626467149
  H        23.5662622002       19.6794735062        5.3800650228
  H        22.3021681000       16.1685061179        3.2424773541
  H        24.4875721304       16.1384553483        2.0226790752
  H        23.6995698249       17.6439432902        6.8023436815
  H        29.0197040882       21.7150458491        1.7359360922
  H        29.2117035338       21.7049420574       14.5752394869
  H        32.0653879120       18.5714188434        2.9407950808
  H        27.3731169831       19.0278008938        0.0721464075
  H        14.8501450981       19.6459148753        4.1473445134
  H        17.0124915825       19.6888176251        5.3908158612
  H        18.3007773968       16.1827872509        3.2587044840
  H        16.1344414988       16.1554359015        2.0148898837
  H        16.9200990757       17.6918176823        6.8547382008
  H        46.0876417920       15.4339492727        4.0636332985
  H        43.9599285490       15.3686703123        5.3655299642
  H        42.5410238749       18.8022865616        3.1972615479
  H        44.6695234504       18.8426739529        1.8852550409
  H        44.0177731611       17.3192936420        6.8212927228
  H        20.2901990353       17.9143584638        3.4277909757
  H        46.0435083210       15.3913070506       12.0227221361
  H        43.9151304060       15.3324474320       10.7231266995
  H        42.5262342358       18.8006009884       12.8546980240
  H        44.6608341552       18.8451294282       14.1557074104
  H        44.0090322053       17.3102355220        9.2607180056
  H        46.1994053270       26.6826640096       12.6182672001
  H        52.7412611541       21.0626762157        0.1997968253
  H        14.8761686059       19.6752338331       11.8918069971
  H        17.0766909051       19.7515165587       10.7113866706
  H        18.3393493574       16.2389160003       12.8473398730
  H        16.1405228591       16.1859741998       14.0367826601
  H        16.9411779701       17.7127505545        9.2920007067
  H        52.3226914282       21.6734029405       14.2891330766
  H        52.0135110236       21.7023003302        1.5008004164
  H        49.0679994446       18.6080230034       13.1988417116
  H        13.2477605834       19.0161978309       15.9724228199
  H        29.9571390295       12.4351375552        4.2098418593
  H        28.8919528976       10.5009136801        5.3850933120
  H        25.2331773845       11.2224431897        3.2446293252
  H        26.3174808445       13.1443474828        2.0638410769
  H        27.1905112866       11.6591850026        6.7969891603
  H        30.9988535239       22.7751262859        4.0150012936
  H        32.0115499416       24.6546187104        5.3126004274
  H        35.7033465983       24.1257316602        3.1704811602
  H        34.6696879905       22.2534238957        1.8693459254
  H        33.6897401851       23.5739567864        6.7565435940
  H        25.6980980613        8.5964348409        3.4128385117
  H        30.9365534721       22.7284489024       11.9476553630
  H        31.9657567897       24.5856397587       10.6332070274
  H        35.6207374073       24.1123584579       12.8506408720
  H        34.5740267743       22.2575806081       14.1633345978
  H        33.6652812319       23.5600118614        9.2007162517
  H        40.6018192524       17.0947126843       12.6443608913
  H        32.5060016731       14.1484707575        0.2542087590
  H        29.9208790306       12.5209573023       11.9226116745
  H        28.8982571537       10.6120881611       10.6724053101
  H        25.2269485947       11.1745591405       12.8399223000
  H        26.2709566298       13.0681655493       14.0959055753
  H        27.1975952800       11.6701530596        9.2388842541
  H        33.3122532125       14.2362344802       14.4671534587
  H        33.4060921057       14.4160481204        1.5997505355
  H        32.1034957157       18.4768290601       13.1381495069
  H        30.2226984878       14.1911909314        0.0719659845
  H        16.1183744324        2.9634593702        4.1347784692
  H        14.9532793219        4.8205806188        5.3275223122
  H        17.3665418939        7.6860459331        3.2153344175
  H        18.5151812519        5.8184808022        2.0155453962
  H        16.7536666239        5.7396729339        6.7766793728
  H        44.8280391391       32.1402829442        3.9822506829
  H        45.9373532463       30.3414057213        5.3116900842
  H        43.6826461767       27.3781577924        3.1574758829
  H        42.5998891369       29.1900273206        1.8148911579
  H        44.2303281784       29.4366359133        6.7740315427
  H        14.8515141262        8.5464947176        3.3684628213
  H        44.8997772792       32.2340486794       11.9265640849
  H        46.0246826117       30.4129882309       10.6470590457
  H        43.7637534019       27.4840525200       12.8405008649
  H        42.6459328152       29.3177854453       14.1195215853
  H        44.2684410774       29.4703828529        9.2131201745
  H        35.0799612081       26.6199637650       12.6244542672
  H        36.6051215317       35.1341020731        0.1857307721
  H        16.1436169312        3.0130144122       11.8990808893
  H        14.9740435807        4.8563791759       10.6833333895
  H        17.3961187333        7.7473144010       12.7500825367
  H        18.5431934502        5.8934228080       13.9776844353
  H        16.7646870310        5.7555602526        9.2142238092
  H        36.2786068122       34.4825246539       14.2681193338
  H        36.3809923403       34.2091834097        1.5047771109
  H        40.5803229139       33.2027060924       13.1483588303
  H        17.4709012501        1.9478012912       15.9690522720
  H        29.0887803502       19.3675303805        4.4805982864
  H        29.5106677187       19.4454631763       11.4253618267
  H        31.7837021282       15.8011913560       11.5193100780
  H        31.1147255732       15.5648631718        4.4618221355
  H        27.9567748514       17.9733596577        6.4602222506
  H        29.2610740669       15.3533721559        6.3553236359
  H        31.4564780557       19.9513715169        9.5203979170
  H        32.9649161575       17.0747529506        9.4531661284
  H        28.6556501096       16.6659233570        8.4958750247
  H        18.8530447782        0.8687795021        4.3404083107
  H        40.5279247102       35.2290985108       11.9469585450
  H        42.3240430300       34.4190495385       11.5853107857
  H        22.0874922688        0.6923377757        4.3566479214
  H        11.5970534568       18.7125545744        4.3874826570
  H        52.2651641091       18.4310196935       11.6725371430
  H        49.2545514925       16.4772003245       11.5797481413
  H        10.1496783144       15.7983522553        4.2981131813
  H        50.8501776793       17.6926194283       11.9490622377
  H        10.0457638238       17.3946403740        4.0570488608
  H        20.2142599860        0.0020795228        4.0471718967
  H        39.1836232489       36.1244338997       11.6813010952
 Ni        31.0663542543       17.8445579642       10.7484284952
 Ni        31.0739702717       16.3191753243        7.9109532110
 Ni        29.9271227550       18.7408554864        7.8292612941
 Ni        29.8954101726       17.3494844301        5.0780801425
  O        10.6498731692       14.3651311062       13.4807285596
  O        12.6131374426       14.6575040943       14.5787916721
  O        49.1478521928       16.8459090617       15.9846833298
  O        50.3502741829       20.9357988840       13.6429585996
  O        48.3485464662       20.5932858359       14.6608493738
  O        11.0516609820       17.0538314322       14.4956315784
  O        50.3209879995       20.8816568769        2.4119579939
  O        48.3467235780       20.5867180978        1.3322429097
  O        49.5435942925       18.2484132951        2.0733310532
  O        12.3591763337       18.6246698666        0.0048351040
  O        48.6931799993       14.1486204991       14.7462022461
  O         8.2098949899       14.2104360476        1.3276592569
  O        10.7353698580       14.5068005491        2.6694405012
  O        12.5718139843       14.5828241467        1.3336054668
  O        22.8445984357        2.0426122727       13.4822307696
  O        21.6062003505        3.5926449654       14.5839145745
  O        42.0582148126       34.1374401093       15.9738865550
  O        37.9818188977       33.1381591988       13.5674159380
  O        39.2181680928       31.5762889481       14.6615681503
  O        20.3084134667        1.0396365189       14.4970254849
  O        38.0246327223       33.1857100372        2.4202280582
  O        39.2193671551       31.5839160560        1.3312756517
  O        40.6522666759       33.7693918132        2.0653368901
  O        18.2556136118        1.3766733301        0.0018759699
  O        44.6222509655       35.1005012117       14.7536662974
  O        24.2053972038        0.0000163314        1.3259111368
  O        22.7529517206        2.0575756041        2.5888910315
  O        21.6245311991        3.5961774233        1.3479605838
  O        27.5036772961       18.7505771951       13.4812855970
  O        26.7624402137       16.9340764484       14.6384346542
  O        30.6338917503       19.3530888744        0.0104023634
  O        33.5911327043       16.2732881365       13.6620831348
  O        34.2768820811       18.1673497058       14.7281766886
  O        29.5762493562       17.0575239045       14.5656155819
  O        33.5546046857       16.3398123100        2.4210482213
  O        34.3002924827       18.2404347130        1.4107831552
  O        31.6497628505       18.3180217297        2.0990265965
  O        30.3210554040       15.1571475376        0.0862617495
  O        28.5538617003       21.0292249402       14.8251513482
  O        28.5121420372       20.9540521011        1.4064747932
  O        27.4538584246       18.6785731094        2.6612731753
  O        26.6924109788       16.9256630441        1.4180270661
  O        13.1487634441       18.6928661735        2.5926031769
  O        13.9192058340       16.9161855638        1.4100751027
  O        50.5961654516       19.3501987084        0.0257075401
  O        47.6827911139       16.3270170567        2.4223346887
  O        46.9507565633       18.1757243839        1.3302454825
  O        11.0697203369       17.0155839245        1.4947000618
  O        47.6756318614       16.3358999778       13.6476537648
  O        46.9263958822       18.2359275636       14.6588756610
  O        49.5686583169       18.3177110745       13.9772626006
  O        10.3186542287       15.1001885350        0.0022127217
  O        52.6707710028       21.0278893010        1.2469313090
  O        12.1468249607       20.8912324242       14.6681972351
  O        13.1077546655       18.6137291661       13.3206233515
  O        13.9571686485       16.9871286532       14.6602715302
  O        29.9920968215       14.4360692590        2.7303665390
  O        28.0874115287       14.6528875573        1.4994064118
  O        32.1360226654       16.8515858012        0.0693299325
  O        30.9633056582       20.9499735471        2.4099292436
  O        32.9445479599       20.6004196254        1.3384382055
  O        29.5595119775       17.0721064342        1.5739179067
  O        30.8736383105       20.9479063795       13.6552046552
  O        32.8774307799       20.5871267463       14.6603958348
  O        31.6874682163       18.2534574048       13.9890368487
  O        28.2618305634       18.6374390890        0.0687042150
  O        32.4913403567       14.2117649584        1.3321821601
  O        32.4050031926       14.2169082540       14.8152535209
  O        29.9277743758       14.4449883428       13.4806490793
  O        28.0432849653       14.5865681490       14.7423535444
  O        17.8892579817        1.9666742125        2.6679217816
  O        18.9562749048        3.5271825295        1.4130736634
  O        39.1685913036       34.1388559733        0.0023056162
  O        43.2802334377       33.0589476538        2.3368265747
  O        42.0345568432       31.5064428558        1.2467330850
  O        20.3176835558        1.0368411083        1.4851784089
  O        43.2760915194       33.1825787905       13.5697759844
  O        42.0052970497       31.5840930337       14.5778766571
  O        40.5790143787       33.7750288541       13.9307333727
  O        22.3673330342        1.3847081135        0.0030344589
  O        36.6727791686       35.0998266393        1.2383775025
  O        16.4455826466        0.0643403201       14.6632210945
  O        17.9365075621        2.0434373265       13.3212575435
  O        18.9191433966        3.5931687793       14.6607944453
  O        29.9882915241       18.8305313103       12.0095056866
  O        29.7910915628       18.9062873887        3.9815514814
  O        31.3447340763       16.4742499613       12.0712688784
  O        31.2123272893       16.4223183224        4.0007792643
  O        32.0749797745       16.7067686353        9.5795344010
  O        29.4741138211       17.0745763718        8.8286866126
  O        30.1070361899       15.8160831096        6.2399366314
  O        31.5619130908       18.0314965455        6.9908412744
  O        30.7535515661       19.2832236230        9.4976868728
  O        28.8055723075       18.4010170650        6.2603881489
  O        39.4567496553       35.2437939263       11.9968398406
  O        19.1409930082        0.0043197418        3.9956767943
  O        41.9695742414       35.1728231827       12.0820308088
  O        21.6912756582       -0.0692490709        3.9011146250
  O        51.3652228706       18.6142945930       12.0003019561
  O        10.7511723831       18.7471358032        3.9100793993
  O        50.0791589076       16.4127940297       12.0866884767
  O         9.5239247799       16.4832011601        3.9963138035
 Zr         9.2972375911       16.0527813963       14.1773441957
 Zr        49.8367725511       16.0068212336        1.7515387255
 Zr        22.0732695209        0.0300483740       14.1838637315
 Zr        42.4608951287       35.1536048000        1.8061523811
 Zr        29.6105156780       19.0642010717       14.2143822463
 Zr        29.5636407531       19.1719383088        1.8337379919
 Zr        11.0383848420       19.0519768677        1.8329885790
 Zr        11.0442885774       19.1547891858       14.2459716473
 Zr        31.3366807303       16.1020150733        1.8597755658
 Zr        31.3917703679       16.0253957394       14.2570672010
 Zr        18.6011893166       -0.0011330612        1.7683482160
 Zr        18.5065128284       -0.0074151214       14.2086921073
 Zr        12.3026300322       16.3236065256       15.9851814578
 Zr        48.6167318470       18.8330851776        0.0155153834
 Zr        20.3154316053        2.4738203604       15.9852750614
 Zr        40.6435858075       32.6872826048       15.9731463887
 Zr        28.3394623960       16.3370929667        0.0828620268
 Zr        32.6184450923       18.8356566999        0.0431932040
  H        32.3168748788       18.4389233087        7.4522819063
  H        30.6546118141       14.2538301851        8.4024632402
  H        30.5672817139       14.5827103343        9.0809015426
  H        32.7054582170       15.6787519666        6.7107590689
  H        32.8773146239       15.3057234913        7.3509459805
