     576
 i =      376, E =     -4780.0036065636
  C        11.8588493914       14.0535040974       13.7362969546
  C        12.4562228382       12.8907019158       13.0176973453
  C        11.7038450345       12.1710161251       12.0771255503
  C        12.2798689131       11.1086632921       11.3847129352
  C        13.6208256650       10.7394207733       11.6111882977
  C        14.3548265838       11.4439450554       12.5833552205
  C        13.7822671210       12.5090616200       13.2749736847
  C        14.2597107050        9.6482582643       10.8378520483
  C        14.2536364324        9.6551771164        9.4161233064
  C        13.7398456744       10.7568399218        8.6619871316
  C        49.1269763482       21.2331150302       13.8746227236
  C        48.5502133219       22.4012148003       13.1476117772
  C        49.3000869372       23.0682758514       12.1663372051
  C        48.7331442688       24.1074135838       11.4331108008
  C        47.4027368252       24.5093216287       11.6620032590
  C        46.6719891593       23.8607829115       12.6758866475
  C        47.2344597857       22.8158925532       13.4052524976
  C        46.7723820438       25.5869653530       10.8647294252
  C        46.7611321027       25.5572821120        9.4429619084
  C        47.2610827274       24.4422308986        8.6994160465
  C        14.8569815673        8.5684077433        8.7029649679
  C        14.8911519558        8.5967668009       11.5146096716
  C        49.1132235699       21.2033580173        2.1505025459
  C        48.5277346058       22.3647604811        2.8777153933
  C        49.2669007401       23.0254345711        3.8706914182
  C        48.6905666589       24.0600441491        4.6021082609
  C        47.3602077234       24.4569264863        4.3637628452
  C        46.6398681105       23.8120528408        3.3401651091
  C        47.2134281058       22.7760954855        2.6084319150
  C        46.7217176849       25.5319061990        5.1547960071
  C        46.7332666601       25.5281629534        6.5765127324
  C        47.2487683577       24.4289516730        7.3328625435
  C        40.6206828483       17.0954572229        7.3114252909
  C        40.6295772098       17.1014218090        4.5017569572
  C        11.8827853698       14.0860683352        2.2903606926
  C        12.4710361852       12.9094532933        2.9940765756
  C        11.7126161370       12.1764817212        3.9196796161
  C        12.2780655232       11.0933303449        4.5879242199
  C        13.6166759465       10.7185688855        4.3564832102
  C        14.3555067587       11.4338492626        3.3960916093
  C        13.7912215662       12.5157479407        2.7235519750
  C        14.2493706168        9.6213477746        5.1270990838
  C        14.2481801129        9.6415641810        6.5489795167
  C        13.7385771323       10.7507279491        7.2959223358
  C        22.5132251252        3.2449982349       13.7470857622
  C        23.2309051870        4.3481376886       13.0468166911
  C        24.2274596361        4.0636604988       12.1012046254
  C        24.8592980485        5.0998318225       11.4184012075
  C        24.5109304055        6.4436442565       11.6603115874
  C        23.5421632812        6.7195565483       12.6426740730
  C        22.9056334870        5.6851239811       13.3241362146
  C        25.1227215461        7.5470796869       10.8841041190
  C        25.0977269124        7.5392974452        9.4623282124
  C        24.3929086858        6.5422551286        8.7157554824
  C        38.2986367219       31.9279081660       13.8463148030
  C        37.5587056799       30.8391804156       13.1432585986
  C        36.5935773550       31.1467051094       12.1718101807
  C        35.9640749877       30.1292742764       11.4597791637
  C        36.2843212040       28.7779520167       11.6961162894
  C        37.2192179228       28.4777835053       12.7048841461
  C        37.8527210924       29.4942657047       13.4162839001
  C        35.6736465738       27.6901871705       10.8970907185
  C        35.7129381515       27.7051187982        9.4753172916
  C        36.4266683241       28.7049658685        8.7418122279
  C        25.7246186813        8.6072789564        8.7424101449
  C        25.7224698277        8.6208329876       11.5545913742
  C        38.3305267252       31.9612168504        2.1655782951
  C        37.6127403004       30.8878936636        2.9136737805
  C        36.6795964376       31.1973311365        3.9152570688
  C        36.0693355158       30.1801703380        4.6472785312
  C        36.3771765796       28.8267802368        4.4020777339
  C        37.2908768980       28.5271675138        3.3728288691
  C        37.9029763078       29.5409188778        2.6419450230
  C        35.7622458641       27.7285965557        5.1842212641
  C        35.7581604574       27.7248044143        6.6068259887
  C        36.4468382929       28.7152887103        7.3753277477
  C        46.1351918965       26.6207502021        7.2866838944
  C        46.0878217615       26.5803399656        4.4787754619
  C        22.4629445969        3.2557878121        2.2623505898
  C        23.1616142321        4.3627568877        2.9836604283
  C        24.1662990929        4.0736557457        3.9210013790
  C        24.7994795476        5.1015201188        4.6156452770
  C        24.4486448549        6.4487180064        4.3960061324
  C        23.4672646127        6.7310901706        3.4268428163
  C        22.8293968985        5.7034418293        2.7325584945
  C        25.0842001143        7.5444882737        5.1701345742
  C        25.0782866406        7.5375862198        6.5929754292
  C        24.3818839541        6.5424738320        7.3490925015
  C        26.6221652845       17.8604546157       13.7692844851
  C        25.3146255427       17.9113408482       13.0484476754
  C        25.0607310002       18.8989175518       12.0836980746
  C        23.8465537883       18.9196739889       11.4000559886
  C        22.8502354811       17.9561028861       11.6583094016
  C        23.1005003330       16.9923058132       12.6534290704
  C        24.3161945339       16.9659276093       13.3347907569
  C        21.5773356640       17.9384813699       10.8939319827
  C        21.5774537344       17.9086253136        9.4713828912
  C        22.7825523061       17.7764672128        8.7114749538
  C        34.4393300031       17.1954048090       13.9141591918
  C        35.7314641427       17.1489201083       13.1664413856
  C        35.9372404333       16.1780767434       12.1735238488
  C        37.1169712432       16.1653046467       11.4344816552
  C        38.1244514138       17.1218071708       11.6683535141
  C        37.9211287576       18.0735043875       12.6857071074
  C        36.7382799834       18.0918336394       13.4219053579
  C        39.3780262163       17.1278371881       10.8800380090
  C        39.3701474966       17.1313025180        9.4582399820
  C        38.1611263870       17.2476409959        8.7025047264
  C        20.3307167328       17.9258475524        8.7629177743
  C        20.3523380281       17.9444152700       11.5760850550
  C        34.4356002197       17.2384859536        2.1940201472
  C        35.7370146639       17.1381346053        2.9179790601
  C        35.9428660377       16.1569450243        3.8991782866
  C        37.1346972044       16.1250238054        4.6197879045
  C        38.1488267992       17.0729966250        4.3791892036
  C        37.9486199018       18.0269271646        3.3639730704
  C        36.7565752755       18.0637444995        2.6467559789
  C        39.3997595141       17.0893298312        5.1701800463
  C        39.3813502904       17.1116093596        6.5912965976
  C        38.1660943974       17.2363865426        7.3360544653
  C        35.1177797067       26.6488808196        7.3074583658
  C        35.1765869609       26.6568008968        4.4978248117
  C        26.5696359323       17.8260233178        2.3296505039
  C        25.2555137538       17.8691508771        3.0365983056
  C        24.9921520367       18.8702153581        3.9835558897
  C        23.7747460341       18.8930646039        4.6580405074
  C        22.7913289862       17.9149953768        4.4086249496
  C        23.0489833038       16.9388745014        3.4291560349
  C        24.2674764539       16.9135422759        2.7535515669
  C        21.5279016099       17.8947710917        5.1817076063
  C        21.5518785559       17.8844650224        6.6032834455
  C        22.7699840775       17.7648179814        7.3451794767
  C        14.0468068481       17.8285099595        2.2942707387
  C        15.3507190813       17.8842401265        3.0196925493
  C        15.6073369271       18.8849893396        3.9699880269
  C        16.8161563861       18.9037832040        4.6631226569
  C        17.8028457031       17.9247087675        4.4284152897
  C        17.5510295796       16.9485444274        3.4457633722
  C        16.3417082723       16.9250314829        2.7542047314
  C        19.0717466366       17.9055830987        5.1974204410
  C        19.0704586096       17.9028496237        6.6199117773
  C        17.8635230033       17.8054248938        7.3814337068
  C        46.8027616441       17.2160217487        2.1612885704
  C        45.5084926577       17.1457312730        2.9007743322
  C        45.3031469422       16.1628555463        3.8814270980
  C        44.1187416309       16.1357557200        4.6131538281
  C        43.1089310140       17.0912630161        4.3865305313
  C        43.3105863689       18.0525319170        3.3776012413
  C        44.4960686709       18.0836492568        2.6468932176
  C        41.8558747806       17.0969560210        5.1768482194
  C        41.8654825457       17.1054013897        6.5990360654
  C        43.0762418521       17.2060531184        7.3542887215
  C        20.3172726049       17.9129787027        7.3281262973
  C        20.2958827080       17.8851489406        4.5150959402
  C        46.7855976318       17.2331196368       13.8808448223
  C        45.4843372360       17.1313173931       13.1591954378
  C        45.2651414639       16.1322895695       12.1985304587
  C        44.0783763325       16.1069387068       11.4696611739
  C        43.0807320980       17.0779536366       11.6836172612
  C        43.2912780500       18.0484955590       12.6809829237
  C        44.4789129787       18.0798186051       13.4053203127
  C        41.8328019982       17.0982259762       10.8881402240
  C        41.8538388102       17.1047634917        9.4667267266
  C        43.0708791323       17.2023829719        8.7211512250
  C        46.1529882378       26.6371235112        8.7212485036
  C        46.1625008279       26.6561136633       11.5308847203
  C        14.0459941532       17.8321878724       13.7037289744
  C        15.3669294098       17.9076170032       13.0139375817
  C        15.6387330932       18.9215212778       12.0831106125
  C        16.8676705447       18.9594998465       11.4282720428
  C        17.8527714161       17.9828904795       11.6783699657
  C        17.5879353313       16.9984396927       12.6478321978
  C        16.3609649500       16.9597330573       13.3060962251
  C        19.1198808693       17.9576501804       10.9091700356
  C        19.0956056518       17.9285442014        9.4877778390
  C        17.8758231162       17.8168318342        8.7474367969
  C        28.8100292852       14.0810109216        2.3664860649
  C        28.2074484503       12.9083307206        3.0624285539
  C        28.9356434667       12.1736810482        4.0096839790
  C        28.3416203098       11.0998412609        4.6683218334
  C        27.0056615995       10.7361409630        4.4035604684
  C        26.2990572056       11.4519918771        3.4203830755
  C        26.8902326703       12.5264187220        2.7610225841
  C        26.3405224740        9.6554187183        5.1676471447
  C        26.3304398365        9.6804167256        6.5888890918
  C        26.8367666458       10.7919419566        7.3348344539
  C        32.1782177046       21.2359913281        2.1508635258
  C        32.7750845332       22.3993734323        2.8748225382
  C        32.0202178576       23.0886765348        3.8364911181
  C        32.5879725027       24.1309487129        4.5634316478
  C        33.9272042635       24.5121689977        4.3513516992
  C        34.6655189724       23.8407361374        3.3585370195
  C        34.0995077234       22.7936799248        2.6326922202
  C        34.5520571190       25.5898388980        5.1535840199
  C        34.5292615184       25.5658803557        6.5754320542
  C        34.0072164829       24.4553494778        7.3112432215
  C        25.7190027767        8.6030467412        7.3075905896
  C        25.7010846609        8.6059743867        4.4943996947
  C        32.0781348472       21.2000413127       13.8682919720
  C        32.6473722004       22.3634413183       13.1244323584
  C        31.9093292534       23.0215780354       12.1283458678
  C        32.4815898702       24.0621891006       11.3982494548
  C        33.8059876218       24.4758877192       11.6450800390
  C        34.5250870806       23.8319740986       12.6705437631
  C        33.9581338873       22.7876954079       13.3957382224
  C        34.4463454512       25.5618516289       10.8655275161
  C        34.4732367985       25.5523908553        9.4434193761
  C        33.9790387573       24.4498730430        8.6775606052
  C        40.6145302912       17.1004604548        8.7461927112
  C        40.6034254894       17.1273943668       11.5563616832
  C        28.7532401593       14.0681143115       13.8080431355
  C        28.1488945408       12.9183599867       13.0702326561
  C        28.8898475470       12.2159306801       12.1075159938
  C        28.3124482117       11.1573957823       11.4100338733
  C        26.9777525577       10.7736013044       11.6505440877
  C        26.2537936461       11.4629743123       12.6412606648
  C        26.8294682739       12.5224336206       13.3398786501
  C        26.3381486513        9.6815922209       10.8773377515
  C        26.3307834236        9.6936391735        9.4553495699
  C        26.8350194118       10.7993427363        8.7007669211
  C        18.1351806133        3.1795122969        2.3226386305
  C        17.4042477724        4.2761098446        3.0205334247
  C        16.3893846663        3.9967863667        3.9487346340
  C        15.7404957228        5.0362154253        4.6119802422
  C        16.0904852199        6.3803521657        4.3716587808
  C        17.0789949306        6.6507255020        3.4072169878
  C        17.7291268192        5.6139764634        2.7422342476
  C        15.4655300060        7.4877503247        5.1347017292
  C        15.4810860595        7.4874616411        6.5564584870
  C        16.1831678711        6.4943050769        7.3097473230
  C        42.9455804304       31.8596803765        2.0777642208
  C        43.6458546293       30.7721763587        2.8221885233
  C        44.5911260513       31.0934520211        3.8085210569
  C        45.1968696847       30.0878760664        4.5561580135
  C        44.8708528376       28.7347617019        4.3409592454
  C        43.9453388723       28.4204762361        3.3274275295
  C        43.3364569683       29.4256401243        2.5794756168
  C        45.4884561120       27.6553865249        5.1440729967
  C        45.4924468692       27.6808753342        6.5657787919
  C        44.8052496686       28.6887975919        7.3124762503
  C        14.8523323006        8.5602027057        7.2686980851
  C        14.8702695561        8.5595008099        4.4560000545
  C        42.9463133886       31.9616773848       13.8040481693
  C        43.6918015547       30.8854760701       13.0907356313
  C        44.6559265432       31.1913691407       12.1179805747
  C        45.2773942970       30.1717722070       11.4002043160
  C        44.9540439091       28.8214264332       11.6382273849
  C        44.0211175409       28.5237932678       12.6495400709
  C        43.3929109219       29.5405669429       13.3617726837
  C        45.5629569242       27.7240160482       10.8528931411
  C        45.5329946952       27.7172397409        9.4315916274
  C        44.8265167956       28.7073838065        8.6786650540
  C        35.0918835549       26.6406990536        8.7427112634
  C        35.0582580307       26.6178155228       11.5532685170
  C        18.1483882030        3.2469734582       13.7015437940
  C        17.4296872692        4.3437319983       12.9923145191
  C        16.4140426247        4.0522036278       12.0692648351
  C        15.7654628820        5.0826044677       11.3938023406
  C        16.1202634732        6.4279540180       11.6157998517
  C        17.1120924912        6.7116134869       12.5725335720
  C        17.7600024857        5.6829107139       13.2524512940
  C        15.4892717555        7.5233083698       10.8431872178
  C        15.4938606633        7.5057825445        9.4220243015
  C        16.1902115203        6.5037851660        8.6753522344
  H        10.6714065008       12.4646146071       11.9010648568
  H        11.6929931145       10.5495476612       10.6591380696
  H        15.3922452138       11.1700659462       12.7639686391
  H        14.3524881210       13.0729751796       14.0093013963
  H        13.3731786903       11.6292391565        9.1950906991
  H        50.3226989906       22.7480348486       11.9813821573
  H        49.3195738833       24.6224756097       10.6753484916
  H        45.6426544524       24.1618907119       12.8593914817
  H        46.6636613328       22.2909351516       14.1677031277
  H        47.6298036674       23.5759153724        9.2410749069
  H        14.8726367048        8.5888341204       12.6029429319
  H        50.2869243780       22.7025319741        4.0656650789
  H        49.2689819883       24.5754465365        5.3656334843
  H        45.6105189472       24.1094039032        3.1509776915
  H        46.6526900770       22.2539696421        1.8367824829
  H        47.6077000997       23.5519102936        6.8019393672
  H        40.6327531697       17.0626206440        3.4140879638
  H        48.6872260952       14.0951457157       15.7949972039
  H        10.6793248080       12.4663231908        4.0968365145
  H        11.6855609278       10.5232006122        5.3002385628
  H        15.3908301791       11.1553370088        3.2104823090
  H        14.3644360346       13.0849218550        1.9955482543
  H        13.3715835297       11.6191976861        6.7571704714
  H        47.9302676371       14.2188467204        1.7160306619
  H        47.7800691614       14.3743350703       14.4904851390
  H        49.0835157447       18.5520901467        2.8723901185
  H        10.4162703580       14.1343213467        0.0037624792
  H        24.4848307014        3.0239481201       11.9117163551
  H        25.6321756473        4.8780177732       10.6856731531
  H        23.2651436146        7.7537728742       12.8363168519
  H        22.1358754099        5.8900080576       14.0642216722
  H        23.8291214626        5.7871254859        9.2556946671
  H        36.3615797259       32.1909947417       11.9764042612
  H        35.2164941009       30.3728062102       10.7079941506
  H        37.4748624539       27.4375083700       12.8956316444
  H        38.5999539179       29.2689633050       14.1736026484
  H        36.9894031094       29.4541116743        9.2910957996
  H        25.7550911200        8.6051931346       12.6425160715
  H        36.4518671841       32.2415998857        4.1170272291
  H        35.3392301858       30.4273186164        5.4148348458
  H        37.5424155167       27.4869964412        3.1764634115
  H        38.6292564612       29.3131615717        1.8654799847
  H        37.0259714613       29.4721120968        6.8539613556
  H        46.1094462324       26.5878854550        3.3907428506
  H        44.6705551296       35.1164180662       15.8052368400
  H        24.4420113390        3.0346621322        4.0866624754
  H        25.5817908102        4.8697504589        5.3352696889
  H        23.1846215640        7.7664884252        3.2477197831
  H        22.0560864826        5.9194600404        1.9989562798
  H        23.8091619764        5.7879945847        6.8176234482
  H        44.9542260287       34.3895363071        1.6997751184
  H        44.9000831771       34.2057188800       14.4837470262
  H        40.6655586978       33.2099522255        2.8575241692
  H        23.1517317981        1.9582868305        0.0091321600
  H        25.8279557497       19.6431681234       11.8832036707
  H        23.6552348309       19.6908944424       10.6569827144
  H        22.3434059932       16.2391664509       12.8621642674
  H        24.5201978675       16.2069465288       14.0863953198
  H        23.7232460278       17.6530015101        9.2403521157
  H        35.1558016841       15.4436216155       11.9929385174
  H        37.2760394348       15.4035776915       10.6742545277
  H        38.6905075136       18.8202886727       12.8710893893
  H        36.5658108474       18.8404891420       14.1917962515
  H        37.2243439003       17.3766747012        9.2367964877
  H        20.3591257663       17.9901043704       12.6637328522
  H        35.1511749741       15.4366483098        4.0939131413
  H        37.2933504361       15.3608340599        5.3776130677
  H        38.7246239994       18.7650798258        3.1721690320
  H        36.5815365722       18.8185107416        1.8839209053
  H        37.2329375470       17.3556931925        6.7931000140
  H        35.1600890120       26.6800704517        3.4098207077
  H        28.4921007030       21.0721882121       15.8782582372
  H        25.7547146579       19.6219760222        4.1736786484
  H        23.5704813610       19.6729321105        5.3884396080
  H        22.2980780898       16.1767368770        3.2310947181
  H        24.4829929132       16.1476757401        2.0123681816
  H        23.7009839831       17.6326569638        6.8019162464
  H        29.0188640424       21.7146419947        1.7381507687
  H        29.2015967449       21.7089081970       14.5731593452
  H        32.0593412236       18.5680845305        2.9882150056
  H        27.3737850065       19.0310398390        0.0731200592
  H        14.8490770791       19.6437636906        4.1500655988
  H        17.0114163852       19.6860890918        5.3934511810
  H        18.3023621297       16.1849132286        3.2551559652
  H        16.1360300419       16.1578806335        2.0114925582
  H        16.9209128849       17.6888460405        6.8545839310
  H        46.0893457481       15.4341416188        4.0643568067
  H        43.9617330072       15.3665683915        5.3661832528
  H        42.5391214841       18.7983034894        3.1972649968
  H        44.6676948054       18.8408613439        1.8853691722
  H        44.0165270136       17.3171229352        6.8218579526
  H        20.2900013019       17.9161655992        3.4269956908
  H        46.0400866886       15.3890511432       12.0251998756
  H        43.9114643517       15.3303900700       10.7263320771
  H        42.5269111551       18.8035104789       12.8526891501
  H        44.6617292600       18.8475853967       14.1531260932
  H        44.0071335693       17.3093444995        9.2613687053
  H        46.1996706724       26.6827987995       12.6183161769
  H        52.7413898133       21.0626961948        0.1997956066
  H        14.8770005658       19.6735206028       11.8894468337
  H        17.0774094376       19.7485032468       10.7092571368
  H        18.3400064046       16.2382675703       12.8489114646
  H        16.1413922202       16.1864636630       14.0382293677
  H        16.9424455168       17.7090467113        9.2917257955
  H        52.3229532010       21.6734703869       14.2890342869
  H        52.0137339605       21.7024677729        1.5007599957
  H        49.0683443512       18.6079064202       13.1986341304
  H        13.2479990431       19.0158677216       15.9723988296
  H        29.9638454728       12.4596225466        4.2200149694
  H        28.9079960269       10.5299327221        5.4016711362
  H        25.2664561900       11.1820984088        3.2088076070
  H        26.3414165378       13.1007898588        2.0187597073
  H        27.2001170886       11.6613140867        6.7950522022
  H        30.9911011499       22.7828111826        4.0085558506
  H        31.9961032564       24.6647901158        5.3037884461
  H        35.7020928690       24.1246778438        3.1884894577
  H        34.6751641610       22.2514796802        1.8859836932
  H        33.6515832154       23.5880675303        6.7623655138
  H        25.7288197572        8.5881423529        3.4063033242
  H        30.8885936213       22.7010196873       11.9321699827
  H        31.9007460198       24.5727153020       10.6330353527
  H        35.5498561358       24.1391589729       12.8690004311
  H        34.5204316552       22.2704499227       14.1695249739
  H        33.6015938460       23.5779196206        9.2038136999
  H        40.5993679641       17.0956786485       12.6442403179
  H        32.5092877498       14.1455372983        0.2574654340
  H        29.9204979242       12.5112690942       11.9252022182
  H        28.8947971097       10.6094907860       10.6723889018
  H        25.2208919219       11.1801272158       12.8337162622
  H        26.2663491940       13.0704377271       14.0915665574
  H        27.1956822483       11.6745691684        9.2333523404
  H        33.3100175160       14.2294399073       14.4601521895
  H        33.4074591031       14.4173501310        1.6009824238
  H        32.0967668775       18.4876152005       13.1394504227
  H        30.2312756794       14.1928483354        0.0758110864
  H        16.1192515012        2.9599386991        4.1360108763
  H        14.9517039632        4.8160277034        5.3281172211
  H        17.3601208133        7.6838624416        3.2135979490
  H        18.5105318751        5.8175051844        2.0139587521
  H        16.7496827737        5.7368898281        6.7763169928
  H        44.8273029089       32.1405199427        3.9829307212
  H        45.9365588337       30.3416734237        5.3122625436
  H        43.6830665247       27.3783678261        3.1569039369
  H        42.6002122110       29.1903148842        1.8144493675
  H        44.2298729964       29.4365716427        6.7742065697
  H        14.8466332127        8.5426810396        3.3677779018
  H        44.8991287284       32.2340658176       11.9261748111
  H        46.0239413925       30.4130378409       10.6466230007
  H        43.7645945979       27.4840344366       12.8415301745
  H        42.6468253977       29.3178127408       14.1206401723
  H        44.2679925907       29.4702456122        9.2132700238
  H        35.0109976391       26.6296781711       12.6405971925
  H        36.6079004159       35.1345479854        0.1898454596
  H        16.1427975091        3.0125850377       11.9000692225
  H        14.9727711142        4.8555176911       10.6842062211
  H        17.3958373300        7.7471080444       12.7489018199
  H        18.5432204342        5.8937320072       13.9767402555
  H        16.7622396632        5.7539791332        9.2137596683
  H        36.2782285220       34.4833520325       14.2683140609
  H        36.3856275383       34.2073002218        1.5048350531
  H        40.5782544847       33.2022461601       13.1485863608
  H        17.4754020837        1.9461043235       15.9716108608
  H        29.1072129951       19.4068906552        4.4950493189
  H        29.6909806073       19.5423610778       11.4764957861
  H        31.4486213954       15.6245033603       11.5113329301
  H        31.0645395271       15.5396667546        4.4298537568
  H        28.2820735696       17.8183580738        6.8215505534
  H        29.2294437565       15.8117639528        6.7638763329
  H        31.6282445260       19.6860167197        9.4610447497
  H        32.8759253071       17.0714146763        9.4044674363
  H        28.9280128670       16.7893165839        9.5182555181
  H        18.9044723697        0.8519678164        4.3672943985
  H        40.5247690171       35.2296332185       11.9462411020
  H        42.3246585986       34.4192118817       11.5841692343
  H        22.0966781441        0.6986871023        4.3486664996
  H        11.5970196046       18.7127463378        4.3875302844
  H        52.2650405019       18.4315337072       11.6722117562
  H        49.2554435453       16.4766089692       11.5793077346
  H        10.1512210131       15.7983344361        4.2974408203
  H        50.8503990049       17.6924794458       11.9490322879
  H        10.0465131748       17.3947652582        4.0569905398
  H        20.2922228999        0.0043574849        4.0391691162
  H        39.1819722172       36.1254755978       11.6841167682
 Ni        30.9937398828       17.7888856753       10.7479833685
 Ni        31.1164887176       16.3444510964        7.8309392084
 Ni        29.9696944363       18.7606382213        7.9923239945
 Ni        29.9306722348       17.3825776680        5.1590929380
  O        10.6498905317       14.3651175526       13.4807833448
  O        12.6131631686       14.6574382595       14.5787313670
  O        49.1478389899       16.8458550533       15.9846721902
  O        50.3502865990       20.9358002054       13.6429157644
  O        48.3485539132       20.5932731496       14.6608254346
  O        11.0518138840       17.0537181318       14.4956756542
  O        50.3209215282       20.8816938704        2.4119920038
  O        48.3466952001       20.5867192131        1.3322338793
  O        49.5437193496       18.2483723453        2.0733073949
  O        12.3592464188       18.6246764578        0.0048002800
  O        48.6931947381       14.1486444489       14.7462069953
  O         8.2099150076       14.2104580296        1.3276325240
  O        10.7352889936       14.5067999573        2.6694094477
  O        12.5718010753       14.5826671055        1.3336998142
  O        22.8446853458        2.0430578741       13.4817960223
  O        21.6065414501        3.5928677650       14.5835044254
  O        42.0593457297       34.1370320977       15.9717289414
  O        37.9811980660       33.1362023293       13.5674465076
  O        39.2172431182       31.5748547345       14.6607984308
  O        20.3090815111        1.0398725998       14.4968152270
  O        38.0251345583       33.1851854192        2.4219112320
  O        39.2183101442       31.5830153513        1.3326908219
  O        40.6542360998       33.7681393391        2.0630954252
  O        18.2597584731        1.3743307623        0.0033491150
  O        44.6227713378       35.1002629214       14.7517002290
  O        24.2068244463       -0.0001608301        1.3254597761
  O        22.7533111455        2.0569229058        2.5886072552
  O        21.6252870633        3.5964596717        1.3487198688
  O        27.5019599361       18.7504513761       13.4850560546
  O        26.7624798125       16.9332684023       14.6402656604
  O        30.6357394708       19.3503542772        0.0208059609
  O        33.5888149386       16.2748920663       13.6624222222
  O        34.2748096154       18.1687365406       14.7305002750
  O        29.5752574321       17.0521559181       14.5675923795
  O        33.5510183096       16.3397378392        2.4231370644
  O        34.2994232604       18.2390518460        1.4121081679
  O        31.6464275089       18.3161951668        2.1453432207
  O        30.3234122470       15.1595810447        0.0825925622
  O        28.5518912140       21.0283656964       14.8278664626
  O        28.5130481239       20.9528712778        1.4076678764
  O        27.4553381066       18.6791918982        2.6607996264
  O        26.6926031836       16.9267779915        1.4183329933
  O        13.1487068427       18.6928245321        2.5925247764
  O        13.9191407548       16.9161934624        1.4100115280
  O        50.5962806992       19.3501728636        0.0255919097
  O        47.6827546656       16.3269904803        2.4224283929
  O        46.9505491855       18.1756737542        1.3303745459
  O        11.0698522185       17.0155225165        1.4946267351
  O        47.6752357364       16.3359755902       13.6474586855
  O        46.9260864493       18.2359725398       14.6587165413
  O        49.5687209595       18.3176655669       13.9772579274
  O        10.3187050255       15.1001574101        0.0022257162
  O        52.6707751758       21.0278646899        1.2469130639
  O        12.1468314974       20.8912272889       14.6682186511
  O        13.1079437519       18.6136662047       13.3205965742
  O        13.9571894940       16.9871566264       14.6602225518
  O        30.0018921295       14.4301613402        2.6666418697
  O        28.0780575784       14.6551827822        1.4911934120
  O        32.1350899382       16.8541579872        0.0744753901
  O        30.9626944818       20.9493111863        2.4111966058
  O        32.9436217323       20.6010872385        1.3395433605
  O        29.5593553599       17.0741621330        1.5703856766
  O        30.8509212126       20.8860732818       13.6487932451
  O        32.8687765268       20.5867809197       14.6581706119
  O        31.6866735800       18.2460111278       13.9878952686
  O        28.2615632449       18.6380570587        0.0710907765
  O        32.4930384971       14.2117458755        1.3326244673
  O        32.4052906353       14.2159624058       14.8152316578
  O        29.9272867409       14.4431836563       13.4805216151
  O        28.0436244682       14.5857176064       14.7417514719
  O        17.8898810593        1.9651349011        2.6684970294
  O        18.9561878185        3.5265989575        1.4135670784
  O        39.1691586545       34.1391103357        0.0045293966
  O        43.2804033414       33.0592976474        2.3364814154
  O        42.0344805584       31.5065794543        1.2465809334
  O        20.3213846280        1.0373913893        1.4838973870
  O        43.2760946802       33.1825887884       13.5696777855
  O        42.0050901827       31.5841858593       14.5778830856
  O        40.5786811840       33.7749307260       13.9306868119
  O        22.3685599367        1.3850851924        0.0023097798
  O        36.6742578469       35.0996522486        1.2409047767
  O        16.4461347683        0.0647263327       14.6630242664
  O        17.9365638225        2.0433247418       13.3215442191
  O        18.9190204886        3.5931562469       14.6609181416
  O        29.9451396469       18.7606610412       12.0000434242
  O        29.7836961267       18.9015206462        4.0042661244
  O        31.2926465897       16.4151303627       12.0578088376
  O        31.1324167760       16.4170680822        4.0041976523
  O        31.9765321286       16.7178719297        9.5139003881
  O        29.1463125919       16.9268357242        8.5773350172
  O        30.0734033546       15.8999867290        6.2686613008
  O        31.5638835195       18.1736702396        7.0833059350
  O        30.7569362595       19.2700690034        9.5856540530
  O        28.9589291997       18.4051368594        6.4218976362
  O        39.4555659208       35.2440184583       11.9970933267
  O        19.2009143375        0.0037011180        3.9929401997
  O        41.9699405832       35.1724613801       12.0814870115
  O        21.7007768252       -0.0692024517        3.9030938927
  O        51.3651059318       18.6143878250       12.0002968592
  O        10.7511413178       18.7471749433        3.9100826324
  O        50.0798198828       16.4127529316       12.0866771864
  O         9.5249699031       16.4830364399        3.9963055771
 Zr         9.2977950263       16.0527009455       14.1774029222
 Zr        49.8373229788       16.0067398298        1.7516030887
 Zr        22.0726715131        0.0312191881       14.1808223674
 Zr        42.4636920935       35.1525573082        1.7967039984
 Zr        29.6012861219       19.0509047374       14.2328748645
 Zr        29.5627883733       19.1696928415        1.8401251154
 Zr        11.0389009367       19.0518100302        1.8330022445
 Zr        11.0448521495       19.1546181478       14.2457677669
 Zr        31.3336981754       16.1041580223        1.8580292281
 Zr        31.3906363570       16.0174852642       14.2606597058
 Zr        18.6073582378        0.0007453101        1.7804153299
 Zr        18.5064273746       -0.0081379183       14.2119093771
 Zr        12.3034077405       16.3235194419       15.9852185802
 Zr        48.6173110956       18.8330094162        0.0154880283
 Zr        20.3153904898        2.4750257387       15.9849657871
 Zr        40.6412682245       32.6878121901       15.9726775583
 Zr        28.3308242101       16.3332879542        0.0849393855
 Zr        32.6213067187       18.8332085984        0.0519955050
  H        32.3816573804       18.5060719890        7.4956990126
  H        31.3157983805       14.7604552926        8.1046118189
  H        31.9894261967       15.0191586607        7.6297047829
  H        32.5949685041       13.7723019942        4.7263295400
  H        32.2889802834       13.5412895362        4.0968487965
