     576
 i =      480, E =     -4780.0302742259
  C        11.8587272319       14.0535443108       13.7364413902
  C        12.4561920432       12.8905978795       13.0181404633
  C        11.7044151586       12.1715523247       12.0766320783
  C        12.2807674745       11.1093477751       11.3842607511
  C        13.6213945137       10.7396569169       11.6118776156
  C        14.3546627345       11.4433460630       12.5851763963
  C        13.7817910720       12.5083294777       13.2766824089
  C        14.2608764128        9.6489523297       10.8384979932
  C        14.2561927712        9.6568565913        9.4168034661
  C        13.7430552113       10.7589994368        8.6629101701
  C        49.1269029505       21.2331442995       13.8746151391
  C        48.5501635229       22.4011494909       13.1475769010
  C        49.3001422739       23.0683880358       12.1664947377
  C        48.7331935113       24.1075203313       11.4332902533
  C        47.4027195094       24.5092940369       11.6620568150
  C        46.6718537644       23.8605625890       12.6757284756
  C        47.2343246508       22.8156687880       13.4050827372
  C        46.7724786809       25.5869864826       10.8647779523
  C        46.7613493040       25.5573045072        9.4430126233
  C        47.2613255862       24.4422316613        8.6995098702
  C        14.8601527027        8.5705255472        8.7035520552
  C        14.8916958746        8.5970409496       11.5151586358
  C        49.1131942779       21.2033760363        2.1505099156
  C        48.5278206668       22.3647091850        2.8777507821
  C        49.2671197959       23.0254839559        3.8705709157
  C        48.6908361620       24.0600529420        4.6020555887
  C        47.3604348653       24.4568607500        4.3638256614
  C        46.6399461341       23.8119143390        3.3403806326
  C        47.2134661990       22.7759914593        2.6085909053
  C        46.7220061562       25.5318350801        5.1548642210
  C        46.7336561508       25.5281620928        6.5765690640
  C        47.2490739504       24.4289423188        7.3329551523
  C        40.6219004667       17.0984345342        7.3119805672
  C        40.6311302039       17.1024813702        4.5022993498
  C        11.8830299772       14.0865301471        2.2905639295
  C        12.4723759434       12.9107944402        2.9948540071
  C        11.7148241193       12.1775173055        3.9208717539
  C        12.2814186601       11.0950622946        4.5892752389
  C        13.6202851207       10.7214310557        4.3575550613
  C        14.3583287897       11.4371469346        3.3969212768
  C        13.7928974104       12.5183133240        2.7242263779
  C        14.2538332683        9.6246377756        5.1279554332
  C        14.2524761888        9.6445673202        6.5497938754
  C        13.7425647497       10.7535004102        7.2968658970
  C        22.5124871748        3.2440756805       13.7485942754
  C        23.2290432650        4.3485249482       13.0500832096
  C        24.2262432577        4.0666922171       12.1046705406
  C        24.8551255091        5.1050913937       11.4227690251
  C        24.5024912677        6.4472850365       11.6664132284
  C        23.5337846703        6.7207126664       12.6491740540
  C        22.9001615863        5.6840795404       13.3294315189
  C        25.1092100342        7.5526078401       10.8900881344
  C        25.0783916084        7.5459096210        9.4687352692
  C        24.3735858114        6.5475740775        8.7238159351
  C        38.3033940026       31.9292425755       13.8434892869
  C        37.5758963588       30.8386441864       13.1331430176
  C        36.6184127924       31.1404894137       12.1527867252
  C        36.0038665859       30.1187289612       11.4341604614
  C        36.3317870191       28.7700547652       11.6747533586
  C        37.2596153833       28.4756897430       12.6914878036
  C        37.8784993281       29.4961585404       13.4086282579
  C        35.7315483840       27.6770489665       10.8775207706
  C        35.7636156103       27.6918105481        9.4561879363
  C        36.4702234993       28.6936657109        8.7188092142
  C        25.7008859667        8.6154696906        8.7479454030
  C        25.7095075901        8.6260992810       11.5599564359
  C        38.3287210993       31.9621613711        2.1608971339
  C        37.6073136764       30.8883161017        2.9019422481
  C        36.6803781602       31.1959706587        3.9094788922
  C        36.0714281920       30.1765107161        4.6386081396
  C        36.3752602786       28.8242994378        4.3833862913
  C        37.2793383768       28.5266341172        3.3454457681
  C        37.8906009529       29.5425691206        2.6177906921
  C        35.7688293705       27.7243730454        5.1674183709
  C        35.7824488158       27.7163066496        6.5893238494
  C        36.4789534591       28.7055926195        7.3522714736
  C        46.1356397537       26.6207979103        7.2867014567
  C        46.0880391935       26.5801841469        4.4788033341
  C        22.4601719130        3.2555059251        2.2629535949
  C        23.1529992878        4.3638880878        2.9869031053
  C        24.1543152945        4.0772760231        3.9283195473
  C        24.7814738447        5.1070849493        4.6252836567
  C        24.4274222038        6.4529054368        4.4030911329
  C        23.4490172541        6.7327856074        3.4303732488
  C        22.8170731715        5.7032030201        2.7340199163
  C        25.0584214245        7.5506665351        5.1771412904
  C        25.0529375180        7.5442626089        6.5999040663
  C        24.3596749110        6.5478085884        7.3572123782
  C        26.6209942275       17.8615428262       13.7781874370
  C        25.3121690874       17.9076089517       13.0540225951
  C        25.0569644574       18.8993154939       12.0938978853
  C        23.8439502380       18.9199106436       11.4075779522
  C        22.8501385774       17.9517820818       11.6588048580
  C        23.1023124229       16.9827154246       12.6481654249
  C        24.3170656953       16.9568957360       13.3321826160
  C        21.5769912874       17.9363868088       10.8942614300
  C        21.5762696663       17.9111574152        9.4717509970
  C        22.7814439300       17.7856013854        8.7108309160
  C        34.4407047044       17.1964205977       13.9153273306
  C        35.7330694976       17.1491499419       13.1671047914
  C        35.9390855388       16.1810319348       12.1718075028
  C        37.1186815994       16.1702990086       11.4326385735
  C        38.1258971905       17.1260931614       11.6690422003
  C        37.9227400727       18.0752512944       12.6888453438
  C        36.7398474753       18.0915848934       13.4248639771
  C        39.3791435196       17.1335159369       10.8805677074
  C        39.3712584643       17.1365588794        9.4587388147
  C        38.1621592445       17.2513522678        8.7027877808
  C        20.3296295227       17.9281554093        8.7632625335
  C        20.3520482552       17.9408370882       11.5764140140
  C        34.4368788574       17.2376122580        2.1939565005
  C        35.7400669541       17.1347373769        2.9153955057
  C        35.9458434596       16.1543738064        3.8974117662
  C        37.1370202226       16.1237682670        4.6192887207
  C        38.1508484110       17.0719749021        4.3785496043
  C        37.9512009393       18.0244073943        3.3617776608
  C        36.7596324119       18.0601164352        2.6436516045
  C        39.4011939840       17.0898179354        5.1704605799
  C        39.3826584374       17.1132087358        6.5916302288
  C        38.1673695421       17.2378123271        7.3363247087
  C        35.1522506538       26.6371527758        7.2933757193
  C        35.1762339853       26.6550529769        4.4841950885
  C        26.5684044838       17.8241036526        2.3287727048
  C        25.2528677278       17.8707175562        3.0348256042
  C        24.9856421164       18.8794814265        3.9726066324
  C        23.7686981911       18.9032895720        4.6483595781
  C        22.7890690293       17.9192059432        4.4079522254
  C        23.0499342874       16.9358794651        3.4366918106
  C        24.2682448909       16.9093482596        2.7604798541
  C        21.5257995603       17.9005893838        5.1815491715
  C        21.5500483172       17.8919128310        6.6029447027
  C        22.7687383015       17.7766081783        7.3445869689
  C        14.0461569406       17.8285780060        2.2941986751
  C        15.3498419548       17.8847225550        3.0201878659
  C        15.6058467510       18.8865607386        3.9694035005
  C        16.8144167026       18.9063317139        4.6628823900
  C        17.8010444573       17.9270839617        4.4292475404
  C        17.5497469643       16.9494972534        3.4479944444
  C        16.3406275247       16.9250592172        2.7561479291
  C        19.0699357032       17.9092610573        5.1981147261
  C        19.0688606948       17.9063564515        6.6205478020
  C        17.8620691343       17.8076390947        7.3821721621
  C        46.8029148131       17.2162916986        2.1616266692
  C        45.5092633813       17.1468091745        2.9016002740
  C        45.3027945765       16.1625003514        3.8805961956
  C        44.1185623966       16.1359535033        4.6125143522
  C        43.1102402794       17.0933931552        4.3876679566
  C        43.3131987852       18.0565288899        3.3808521043
  C        44.4984683744       18.0870828079        2.6498784466
  C        41.8571382721       17.0989456606        5.1777206101
  C        41.8667574550       17.1080182379        6.5997911766
  C        43.0775615536       17.2092172091        7.3548649497
  C        20.3158247230       17.9175133670        7.3284429059
  C        20.2937596236       17.8893667733        4.5153111510
  C        46.7857040974       17.2332777294       13.8809332380
  C        45.4847285116       17.1324544927       13.1594852921
  C        45.2648810637       16.1340012079       12.1983992979
  C        44.0781855416       16.1100943314       11.4695175235
  C        43.0814565873       17.0819510332       11.6839285771
  C        43.2926165469       18.0518377884       12.6817713229
  C        44.4801400316       18.0817461893       13.4061564831
  C        41.8337539397       17.1034988688       10.8884829753
  C        41.8549207554       17.1097555880        9.4671700332
  C        43.0720678911       17.2067808237        8.7217093026
  C        46.1533752731       26.6372084196        8.7212561064
  C        46.1625129113       26.6561060911       11.5308950443
  C        14.0457092650       17.8320562333       13.7039231519
  C        15.3668632508       17.9070740705       13.0141529250
  C        15.6396458107       18.9218171002       12.0846188368
  C        16.8686782132       18.9592792205       11.4299155818
  C        17.8525135799       17.9811871993       11.6789590648
  C        17.5867902472       16.9958362501       12.6471560968
  C        16.3597191725       16.9577035897       13.3052421333
  C        19.1195072994       17.9557352856       10.9096653653
  C        19.0947039618       17.9287497255        9.4883057605
  C        17.8747230983       17.8176678067        8.7481423534
  C        28.8071825553       14.0878459947        2.3931993339
  C        28.1937409389       12.9142074763        3.0815464639
  C        28.9176532636       12.1701997492        4.0249235620
  C        28.3175690168       11.0962275256        4.6774673235
  C        26.9794810848       10.7424166776        4.4105969766
  C        26.2773706010       11.4663493496        3.4304909426
  C        26.8754111107       12.5405556608        2.7762952048
  C        26.3108799407        9.6629622815        5.1725335330
  C        26.3011475464        9.6887307605        6.5935141222
  C        26.8070766720       10.8010290686        7.3386487247
  C        32.1759365255       21.2349324532        2.1515890980
  C        32.7715456423       22.4023861793        2.8700704411
  C        32.0229097471       23.0860118041        3.8402818159
  C        32.5950907881       24.1257177131        4.5673795293
  C        33.9314630034       24.5098846838        4.3442560276
  C        34.6625392153       23.8454726117        3.3417107262
  C        34.0926143552       22.8003092894        2.6169344322
  C        34.5623094755       25.5849384342        5.1438272206
  C        34.5574466499       25.5552825232        6.5653104673
  C        34.0477547344       24.4404656032        7.3031749337
  C        25.6922470103        8.6111812936        7.3133750856
  C        25.6729877400        8.6126289070        4.5000433376
  C        32.1032228720       21.2245179830       13.8774600226
  C        32.6974573535       22.3723863743       13.1281770947
  C        31.9650633336       23.0327818511       12.1296814783
  C        32.5477533420       24.0617416874       11.3930909814
  C        33.8766355391       24.4606965575       11.6370644552
  C        34.5922630951       23.8127889403       12.6620698078
  C        34.0142857590       22.7783374912       13.3936851122
  C        34.5178549815       25.5423517803       10.8540613667
  C        34.5342969344       25.5335228435        9.4322763406
  C        34.0361971380       24.4304730085        8.6696943235
  C        40.6156169960       17.1051486927        8.7467017963
  C        40.6045331055       17.1331418092       11.5568052491
  C        28.7471869141       14.0668869592       13.8152138070
  C        28.1370049112       12.9190218856       13.0766270012
  C        28.8743259239       12.2233840808       12.1064285386
  C        28.2948075917       11.1669133848       11.4073285742
  C        26.9619209654       10.7799816009       11.6538477277
  C        26.2417544842       11.4638003011       12.6508953445
  C        26.8198927417       12.5207892050       13.3515552250
  C        26.3204768879        9.6887580322       10.8817756089
  C        26.3073539472        9.7019482107        9.4601229080
  C        26.8078580336       10.8085819667        8.7044717677
  C        18.1354019556        3.1810374664        2.3222825916
  C        17.4060777378        4.2782520903        3.0208638318
  C        16.3903875137        3.9998891800        3.9484163589
  C        15.7426014126        5.0398527624        4.6118700937
  C        16.0945376035        6.3835790258        4.3722288806
  C        17.0838834132        6.6531298592        3.4084330267
  C        17.7330175040        5.6157893188        2.7434250534
  C        15.4701583024        7.4912529174        5.1352522796
  C        15.4854036541        7.4905364604        6.5569657553
  C        16.1869330269        6.4969071833        7.3101439678
  C        42.9459179511       31.8595024871        2.0780051391
  C        43.6462689815       30.7718263246        2.8219980695
  C        44.5918770018       31.0931575425        3.8079909588
  C        45.1975923847       30.0876310011        4.5556801103
  C        44.8711648229       28.7345613702        4.3408687491
  C        43.9453420609       28.4201994841        3.3276573171
  C        43.3365059786       29.4253246533        2.5796021730
  C        45.4887871855       27.6552878939        5.1440715486
  C        45.4929451034       27.6809262936        6.5657666291
  C        44.8058834456       28.6889933150        7.3123855039
  C        14.8564402019        8.5630265353        7.2693313588
  C        14.8750284078        8.5631049856        4.4566560200
  C        42.9465070139       31.9616114154       13.8039043284
  C        43.6918047484       30.8854901114       13.0904728258
  C        44.6563498052       31.1914158525       12.1181332083
  C        45.2779181211       30.1718268419       11.4004466145
  C        44.9541984483       28.8215011966       11.6381150299
  C        44.0207495073       28.5238315392       12.6489280717
  C        43.3924352213       29.5405926108       13.3610647510
  C        45.5631763428       27.7240846448       10.8528467285
  C        45.5334785094       27.7174095545        9.4315468378
  C        44.8271500110       28.7076219013        8.6785717526
  C        35.1416955734       26.6252946033        8.7281173344
  C        35.1272345147       26.6012414958       11.5378651292
  C        18.1485372006        3.2470174822       13.7014647088
  C        17.4298765389        4.3438160639       12.9922414010
  C        16.4146537503        4.0525275109       12.0686841524
  C        15.7663228549        5.0831683955       11.3933370642
  C        16.1210153786        6.4284033351       11.6160384139
  C        17.1124137720        6.7117924128       12.5732742438
  C        17.7601165984        5.6828795847       13.2530093518
  C        15.4904972932        7.5240828983       10.8435871942
  C        15.4963810096        7.5074374183        9.4224515845
  C        16.1931196316        6.5057198298        8.6757493206
  H        10.6722426484       12.4656021290       11.8997291928
  H        11.6944328878       10.5507765521       10.6578244749
  H        15.3917644663       11.1689024946       12.7667300720
  H        14.3513660586       13.0717082887       14.0119103619
  H        13.3760273699       11.6311015899        9.1962466960
  H        50.3228058507       22.7482700730       11.9816319774
  H        49.3196447531       24.6227442839       10.6756564235
  H        45.6424497784       24.1615117482       12.8591102295
  H        46.6634158246       22.2905514302       14.1673408679
  H        47.6298519809       23.5758454651        9.2411893613
  H        14.8720882836        8.5883338383       12.6034654324
  H        50.2871788045       22.7026217112        4.0654065274
  H        49.2693264049       24.5755660255        5.3654483585
  H        45.6105680964       24.1092461886        3.1513168260
  H        46.6525928644       22.2538205540        1.8370699955
  H        47.6079228250       23.5518543943        6.8020515755
  H        40.6345616523       17.0632804299        3.4146508656
  H        48.6871502939       14.0950925700       15.7949704512
  H        10.6813017748       12.4664865946        4.0981341469
  H        11.6895814735       10.5245406980        5.3018322405
  H        15.3938218688       11.1593980036        3.2111234613
  H        14.3653335987       13.0878177188        1.9958776798
  H        13.3758023670       11.6221459908        6.7582347956
  H        47.9302060087       14.2185856545        1.7159447512
  H        47.7799560596       14.3737744656       14.4902959496
  H        49.0831713192       18.5520434013        2.8722891214
  H        10.4160585387       14.1343419858        0.0038630582
  H        24.4858214486        3.0276541678       11.9144917588
  H        25.6283022771        4.8865787856       10.6893737288
  H        23.2545359221        7.7541797726       12.8435300518
  H        22.1298741766        5.8855705621       14.0698397194
  H        23.8127123080        5.7912539367        9.2651287947
  H        36.3807565576       32.1832700184       11.9560990390
  H        35.2609890039       30.3561575155       10.6758524820
  H        37.5203496595       27.4370826182       12.8842426856
  H        38.6206480759       29.2769792043       14.1725854777
  H        37.0366674800       29.4424453480        9.2648276591
  H        25.7467482310        8.6086804864       12.6476865418
  H        36.4581563912       32.2399608134        4.1185869911
  H        35.3472948274       30.4202588771        5.4128430736
  H        37.5253410051       27.4866071014        3.1415944439
  H        38.6114785683       29.3180746459        1.8354528742
  H        37.0531676371       29.4631164689        6.8266466095
  H        46.1095125156       26.5875995505        3.3907684988
  H        44.6682621348       35.1161942872       15.8088379039
  H        24.4318720845        3.0389535412        4.0951363216
  H        25.5618136602        4.8781548600        5.3479253903
  H        23.1643025237        7.7674018379        3.2500999070
  H        22.0458330089        5.9161544273        1.9973926113
  H        23.7875300298        5.7922082454        6.8266994162
  H        44.9536763026       34.3901907474        1.7001257805
  H        44.9017747358       34.2067781754       14.4855696073
  H        40.6658850059       33.2090582683        2.8581904344
  H        23.1504101572        1.9578339732        0.0105696367
  H        25.8230915752       19.6473768393       11.9020720082
  H        23.6503408858       19.6958501964       10.6698998260
  H        22.3471745610       16.2260466933       12.8513853419
  H        24.5227717020       16.1949905661       14.0805161316
  H        23.7216178381       17.6668240094        9.2414675995
  H        35.1591298664       15.4463491866       11.9868635380
  H        37.2770085332       15.4107345892       10.6701643407
  H        38.6919937087       18.8217064713       12.8760629639
  H        36.5665120061       18.8383125288       14.1964720485
  H        37.2249765379       17.3793330729        9.2367288807
  H        20.3590193399       17.9839702698       12.6641561126
  H        35.1543663443       15.4337385773        4.0918141236
  H        37.2953153550       15.3604330414        5.3780703860
  H        38.7271660895       18.7625167145        3.1696151940
  H        36.5843817852       18.8141250798        1.8800638824
  H        37.2341868725       17.3549484610        6.7929792355
  H        35.1461852453       26.6822528552        3.3965917770
  H        28.5043073014       21.0634375760       15.9673105580
  H        25.7440050855       19.6382840022        4.1520587695
  H        23.5606520755       19.6896341984        5.3708156071
  H        22.3013425792       16.1697943661        3.2450714854
  H        24.4866250145       16.1386131968        2.0250922313
  H        23.6991025387       17.6506783955        6.7988458743
  H        29.0344648783       21.7037473951        1.7473957499
  H        29.1792590751       21.7275593819       14.6330345713
  H        32.0691381279       18.5519231982        3.0107892446
  H        27.3733117737       19.0196969305        0.0851496757
  H        14.8473308541       19.6453757136        4.1482139834
  H        17.0094687726       19.6894806692        5.3923711334
  H        18.3012483559       16.1857389042        3.2585949598
  H        16.1349773151       16.1570648583        2.0143002234
  H        16.9194473957       17.6913913308        6.8552675417
  H        46.0878330273       15.4321449511        4.0618921604
  H        43.9603251778       15.3657871097        5.3642825179
  H        42.5427962899       18.8038246159        3.2022841576
  H        44.6712010282       18.8455476030        1.8898658627
  H        44.0178432459       17.3196413103        6.8222940182
  H        20.2874546897       17.9192450299        3.4271871269
  H        46.0392332530       15.3902119664       12.0248075411
  H        43.9104792231       15.3341112827       10.7257905979
  H        42.5287007151       18.8072227834       12.8538433834
  H        44.6635684178       18.8489741830       14.1543429287
  H        44.0082773013       17.3140553904        9.2619527719
  H        46.1994623271       26.6827106327       12.6183371346
  H        52.7412966619       21.0626698272        0.1997914243
  H        14.8786567580       19.6748177247       11.8918765402
  H        17.0793679361       19.7489042894       10.7118533514
  H        18.3380143819       16.2345934059       12.8473349981
  H        16.1390969404       16.1839070746       14.0364976761
  H        16.9415563316       17.7090888110        9.2926547352
  H        52.3228176379       21.6734066864       14.2890634450
  H        52.0135198190       21.7023370332        1.5007317125
  H        49.0679611309       18.6079528135       13.1988033590
  H        13.2477617131       19.0161475586       15.9723105200
  H        29.9487972659       12.4475090983        4.2331212885
  H        28.8804080021       10.5173851556        5.4066281410
  H        25.2435627619       11.2026045940        3.2168595168
  H        26.3317271441       13.1212076444        2.0350295958
  H        27.1683938910       11.6692791638        6.7959004034
  H        30.9957899495       22.7768334208        4.0186205873
  H        32.0095591452       24.6555225348        5.3156619162
  H        35.6966969994       24.1333140970        3.1637404267
  H        34.6619508094       22.2614443676        1.8630152285
  H        33.6883047719       23.5745477903        6.7546505452
  H        25.7010939968        8.5935616039        3.4119943830
  H        30.9405955271       22.7219589289       11.9383349673
  H        31.9721266035       24.5760627489       10.6265313359
  H        35.6209730039       24.1095340530       12.8560978231
  H        34.5711445724       22.2564853960       14.1685570131
  H        33.6677274104       23.5564181969        9.1989463881
  H        40.6004095460       17.1013076019       12.6446764968
  H        32.5024868426       14.1547934709        0.2578401797
  H        29.9034519247       12.5246442093       11.9227056120
  H        28.8741150776       10.6213240038       10.6654656064
  H        25.2105173192       11.1777670286       12.8476898770
  H        26.2612121328       13.0647416024       14.1095967883
  H        27.1689255449       11.6826051787        9.2385805967
  H        33.3085828215       14.2234669512       14.4624995083
  H        33.4049723079       14.4220230509        1.5995299070
  H        32.1217368489       18.5250091285       13.1893204424
  H        30.2185320246       14.1934853669        0.0840502730
  H        16.1183127171        2.9633873811        4.1348053885
  H        14.9531464117        4.8204706931        5.3275240339
  H        17.3663340964        7.6860025864        3.2153317677
  H        18.5150454365        5.8184606486        2.0155732209
  H        16.7535004122        5.7395768441        6.7766440002
  H        44.8281602421       32.1402467716        3.9821386908
  H        45.9375028355       30.3414095940        5.3115725910
  H        43.6826800056       27.3781207409        3.1575438042
  H        42.5998832068       29.1899583079        1.8149519703
  H        44.2305977847       29.4368074324        6.7740729648
  H        14.8513220844        8.5463997986        3.3684343625
  H        44.8998952844       32.2340937377       11.9266731679
  H        46.0248276267       30.4130453013       10.6472087026
  H        43.7638665291       27.4840968973       12.8405700834
  H        42.6459992497       29.3178158698       14.1195768826
  H        44.2687311683       29.4705782060        9.2131501269
  H        35.0838200560       26.6140007429       12.6253019581
  H        36.6051126531       35.1340328118        0.1857597329
  H        16.1435399433        3.0129566712       11.8989813095
  H        14.9739540424        4.8563423072       10.6832956059
  H        17.3959572592        7.7472539178       12.7501431904
  H        18.5430288688        5.8933493194       13.9777261660
  H        16.7645658818        5.7554817857        9.2141772514
  H        36.2784792987       34.4825362472       14.2680373215
  H        36.3807119452       34.2093160355        1.5048794431
  H        40.5804077083       33.2026878908       13.1483566210
  H        17.4708235824        1.9477196568       15.9689943111
  H        29.0376749746       19.2973130212        4.5608343394
  H        29.8661175611       19.7672386168       11.6241999594
  H        32.1289915498       16.0039677910       11.6173358017
  H        31.1446993184       15.5498969379        4.5352043577
  H        28.0729955041       18.0261729416        6.7509526984
  H        29.3708287349       15.3452508832        6.6429751709
  H        31.7256848070       20.0570938561        9.4750058483
  H        33.0950384720       17.3573390535        9.3719651627
  H        28.8126061640       16.8385202675        9.5376646894
  H        18.8536371711        0.8691125341        4.3403928404
  H        40.5279645143       35.2289448857       11.9468937906
  H        42.3242428986       34.4189890763       11.5851969188
  H        22.0876065468        0.6920346503        4.3567142642
  H        11.5967501391       18.7130599693        4.3876312402
  H        52.2650097950       18.4310693667       11.6723353900
  H        49.2546276994       16.4769845929       11.5796795594
  H        10.1507600774       15.7982566275        4.2978077481
  H        50.8500868458       17.6925289027       11.9490692839
  H        10.0463713408       17.3946884682        4.0570587831
  H        20.2149683805        0.0022640792        4.0470650504
  H        39.1836631515       36.1243929569       11.6813350608
 Ni        30.9078520940       17.8336360661       10.7496578352
 Ni        31.1545454588       16.3237911541        8.2407841892
 Ni        29.9677198330       18.8733284279        8.1591094530
 Ni        30.0575897336       17.4018809134        5.4055853856
  O        10.6498974342       14.3651462510       13.4807335554
  O        12.6131415727       14.6574989213       14.5787920650
  O        49.1478614779       16.8459097212       15.9846963001
  O        50.3502855912       20.9357707634       13.6429249263
  O        48.3485605039       20.5932934845       14.6608438460
  O        11.0516341223       17.0538389025       14.4956028634
  O        50.3209707332       20.8816573096        2.4119530629
  O        48.3467165278       20.5867326454        1.3322327691
  O        49.5436838576       18.2484072817        2.0733399473
  O        12.3591608128       18.6246685929        0.0047972437
  O        48.6931804054       14.1486253791       14.7462023065
  O         8.2099047705       14.2104224139        1.3276256033
  O        10.7353891059       14.5067377547        2.6694228182
  O        12.5718359167       14.5828364199        1.3335936167
  O        22.8444984838        2.0428148070       13.4822248460
  O        21.6055892442        3.5922705143       14.5844858949
  O        42.0582449383       34.1374184688       15.9738511984
  O        37.9818124794       33.1373554998       13.5672596192
  O        39.2183764526       31.5761744566       14.6617453746
  O        20.3083939307        1.0395220464       14.4969829899
  O        38.0246494024       33.1857284452        2.4203002771
  O        39.2192987020       31.5838678829        1.3313472496
  O        40.6522890948       33.7693924873        2.0653273293
  O        18.2555666385        1.3766303587        0.0018571464
  O        44.6222464968       35.1005433907       14.7536440260
  O        24.2054218002       -0.0000018961        1.3259054851
  O        22.7528892375        2.0575111104        2.5888423862
  O        21.6243240101        3.5959082083        1.3475983360
  O        27.4945364842       18.7515260699       13.4922207900
  O        26.7622196554       16.9299052843       14.6454973232
  O        30.6329235518       19.3500249965        0.0767833769
  O        33.5890470015       16.2751693168       13.6603978822
  O        34.2751090585       18.1675410266       14.7306499492
  O        29.5747133477       17.0593709962       14.5640965603
  O        33.5516116972       16.3401421021        2.4273426643
  O        34.2998977161       18.2386570365        1.4140128480
  O        31.6468156605       18.3135950701        2.1685831182
  O        30.3208249119       15.1591253212        0.0925125573
  O        28.5547998598       21.0278681809       14.8973977073
  O        28.5144760444       20.9501396236        1.4194405457
  O        27.4531027070       18.6784668226        2.6640265171
  O        26.6924413189       16.9255461372        1.4203000580
  O        13.1483751537       18.6929674880        2.5925070603
  O        13.9191465361       16.9162163598        1.4100833117
  O        50.5961553280       19.3502074957        0.0255718586
  O        47.6829017220       16.3269801818        2.4223326233
  O        46.9507520050       18.1757122910        1.3303510766
  O        11.0697256922       17.0155771680        1.4947101314
  O        47.6753269921       16.3359782824       13.6475360629
  O        46.9265402316       18.2360043508       14.6589810836
  O        49.5686279262       18.3176846325       13.9772365993
  O        10.3186515761       15.1001855351        0.0022163758
  O        52.6707571274       21.0278856729        1.2469180107
  O        12.1468411402       20.8911981045       14.6681654436
  O        13.1080614347       18.6136583173       13.3205552135
  O        13.9571551088       16.9870718841       14.6603346261
  O        29.9923746413       14.4350315300        2.7309880639
  O        28.0875958744       14.6529864805        1.5003698283
  O        32.1301707734       16.8507548350        0.0887230966
  O        30.9613638024       20.9467187183        2.4176323880
  O        32.9427040802       20.6008392859        1.3433722465
  O        29.5635686492       17.0724347025        1.5799760922
  O        30.8714308107       20.9464979799       13.6578969367
  O        32.8760648541       20.5857884830       14.6632005184
  O        31.6842260342       18.2562924032       14.0114055369
  O        28.2620370726       18.6293104036        0.0832909290
  O        32.4899393121       14.2139488071        1.3357692972
  O        32.4046826740       14.2156837613       14.8191339953
  O        29.9175420220       14.4372619788       13.4855796342
  O        28.0376964630       14.5878900009       14.7473299919
  O        17.8892486470        1.9666429273        2.6679094690
  O        18.9562487547        3.5271649566        1.4131140015
  O        39.1686102773       34.1388685681        0.0023108223
  O        43.2802315685       33.0589333436        2.3368057361
  O        42.0345541336       31.5064186508        1.2467442281
  O        20.3176601116        1.0367576771        1.4852277558
  O        43.2761255914       33.1825802079       13.5697993346
  O        42.0052779661       31.5841018360       14.5778501046
  O        40.5790010955       33.7750046631       13.9307367859
  O        22.3672966585        1.3846023465        0.0030316507
  O        36.6728038199       35.0998171235        1.2383829139
  O        16.4455794816        0.0642665768       14.6631685747
  O        17.9364790462        2.0433834608       13.3212511384
  O        18.9190467341        3.5931343032       14.6607807265
  O        29.8658990816       18.9077706519       12.0845966557
  O        29.7489579820       18.8302613994        4.0835852982
  O        31.3422150195       16.3463591319       12.0815931834
  O        31.1376839273       16.4176404977        4.0884011759
  O        32.3717133064       16.7843353513        9.6716404029
  O        29.6738769830       17.2280573051        9.3129681075
  O        30.2095791931       15.8292109115        6.5795689088
  O        31.4796158329       18.0239737533        7.1719129159
  O        30.8734981506       19.6339642054        9.6625502443
  O        28.9224618590       18.4666867162        6.5862324381
  O        39.4567746319       35.2437263222       11.9968231631
  O        19.1415400451        0.0046613844        3.9956278187
  O        41.9695042731       35.1725625667       12.0820200211
  O        21.6912521279       -0.0694396528        3.9011025783
  O        51.3651243500       18.6142685925       12.0002982720
  O        10.7509478100       18.7472064341        3.9100668179
  O        50.0792042855       16.4127853585       12.0867045782
  O         9.5248332154       16.4830470087        3.9962718294
 Zr         9.2971186658       16.0527682355       14.1773631566
 Zr        49.8367618166       16.0067622270        1.7516228947
 Zr        22.0733099360        0.0299809752       14.1838500823
 Zr        42.4609650292       35.1535543751        1.8060464861
 Zr        29.5949126076       19.0819892963       14.2621619635
 Zr        29.5635844821       19.1525656681        1.8961984459
 Zr        11.0382765667       19.0519939302        1.8328928763
 Zr        11.0442771741       19.1547733055       14.2459277244
 Zr        31.3291535681       16.1059550058        1.9011323295
 Zr        31.3881426241       16.0136005958       14.2587268088
 Zr        18.6011937286       -0.0010767976        1.7684747174
 Zr        18.5065180960       -0.0075334104       14.2086676505
 Zr        12.3025252468       16.3235994369       15.9851441598
 Zr        48.6166751878       18.8330128688        0.0155006350
 Zr        20.3151567487        2.4736472763       15.9853160513
 Zr        40.6436402914       32.6873044406       15.9731615657
 Zr        28.3417440141       16.3362223882        0.0799847867
 Zr        32.6088805498       18.8260467813        0.0619204062
  H        32.3352010273       18.4635221249        7.3221153741
  H        30.7795129384       14.4531416476        8.7559282428
  H        30.8934859307       14.7478899048        9.4582918951
  H        32.5841572183       13.6489806224        4.7005747424
  H        32.2717670994       13.4966719239        4.0508696704
