     576
 i =      280, E =     -4780.0316311827
  C        11.8588529396       14.0534795331       13.7364478438
  C        12.4563494602       12.8906056119       13.0181557027
  C        11.7046358558       12.1715786299       12.0765754925
  C        12.2810611702       11.1094192103       11.3842166364
  C        13.6216844876       10.7397476299       11.6118997681
  C        14.3548962825       11.4434446399       12.5852379572
  C        13.7819660877       12.5083972784       13.2767432693
  C        14.2611820539        9.6490739809       10.8385008361
  C        14.2564682227        9.6569951987        9.4168062566
  C        13.7433169622       10.7591346243        8.6629136524
  C        49.1269700981       21.2332186023       13.8745524194
  C        48.5502580277       22.4012431698       13.1475177080
  C        49.3001625297       23.0683730302       12.1663067049
  C        48.7332249141       24.1075417181       11.4331436126
  C        47.4027708929       24.5093421587       11.6619825863
  C        46.6719617747       23.8606968408       12.6757474811
  C        47.2344273758       22.8157677555       13.4050458544
  C        46.7724715554       25.5870012966       10.8647186795
  C        46.7613021284       25.5573045435        9.4429610065
  C        47.2611997780       24.4422013781        8.6994531425
  C        14.8603376432        8.5706291116        8.7035329656
  C        14.8920251879        8.5971615806       11.5151390083
  C        49.1133123745       21.2034538096        2.1504723823
  C        48.5279401628       22.3648455843        2.8776512950
  C        49.2670657654       23.0253813292        3.8707524642
  C        48.6907468427       24.0599268054        4.6022449703
  C        47.3604484041       24.4569345008        4.3637725452
  C        46.6401518886       23.8122693551        3.3400102068
  C        47.2137202425       22.7763814514        2.6082169326
  C        46.7219439776       25.5318518960        5.1548130397
  C        46.7335303570       25.5281343477        6.5765177708
  C        47.2489064316       24.4288903789        7.3329012410
  C        40.6354454100       17.1455729407        7.3269223371
  C        40.6558868495       17.1763457482        4.5180330010
  C        11.8831202609       14.0865087975        2.2905981286
  C        12.4724751076       12.9108303975        2.9948773042
  C        11.7149741428       12.1775709131        3.9209624969
  C        12.2816214312       11.0951474804        4.5893576387
  C        13.6204867551       10.7215315392        4.3575743899
  C        14.3584525060       11.4371793784        3.3968296779
  C        13.7929738255       12.5183198120        2.7241438405
  C        14.2540754863        9.6247727403        5.1279646850
  C        14.2526595131        9.6446781275        6.5497995450
  C        13.7428474181       10.7536594064        7.2968687020
  C        22.5117485089        3.2443675670       13.7481858742
  C        23.2259420040        4.3497133581       13.0491412223
  C        24.2199892490        4.0701159215       12.0997686305
  C        24.8459753341        5.1102104680       11.4177744754
  C        24.4936480824        6.4518043723       11.6653722069
  C        23.5282825994        6.7228940361       12.6520327561
  C        22.8974376786        5.6846422656       13.3322140222
  C        25.0973563296        7.5589838585       10.8895297831
  C        25.0631625041        7.5545972783        9.4682682014
  C        24.3574441407        6.5570913256        8.7230949708
  C        38.3039867980       31.9297780141       13.8435471080
  C        37.5777586455       30.8390190794       13.1326503847
  C        36.6213951273       31.1403951919       12.1511887309
  C        36.0084573780       30.1181446313       11.4320297625
  C        36.3372166599       28.7699294757       11.6735925434
  C        37.2639018237       28.4760104771       12.6913900216
  C        37.8811946996       29.4969518436       13.4089379787
  C        35.7379935193       27.6763861839       10.8769765953
  C        35.7705980998       27.6898952114        9.4558014051
  C        36.4775619340       28.6912197318        8.7180566876
  C        25.6837911560        8.6254439195        8.7479558622
  C        25.6991772187        8.6313571678       11.5599030338
  C        38.3290198175       31.9621347428        2.1608988927
  C        37.6085795572       30.8874221853        2.9018960854
  C        36.6819402589       31.1934632331        3.9101362411
  C        36.0748433936       30.1728260569        4.6392416936
  C        36.3802275943       28.8211022559        4.3832127564
  C        37.2837734096       28.5250568996        3.3443988319
  C        37.8931549265       29.5421302453        2.6167939123
  C        35.7759943069       27.7201618630        5.1674966551
  C        35.7902767666       27.7122312591        6.5893304412
  C        36.4866246103       28.7021558936        7.3515632107
  C        46.1354737872       26.6207423768        7.2866597212
  C        46.0880909520       26.5802843645        4.4787731309
  C        22.4595540975        3.2561476597        2.2631891552
  C        23.1499287484        4.3659859407        2.9871142933
  C        24.1484321395        4.0824556119        3.9324447958
  C        24.7723046647        5.1145161383        4.6291289857
  C        24.4181161652        6.4596964657        4.4027017835
  C        23.4428518003        6.7363966063        3.4258947490
  C        22.8140152243        5.7046139070        2.7300269850
  C        25.0456930442        7.5594957047        5.1767838010
  C        25.0370809445        7.5543768855        6.5995409362
  C        24.3431996208        6.5580445764        7.3564745066
  C        26.6234184892       17.8609335918       13.7767767557
  C        25.3142248569       17.9106532554       13.0536203080
  C        25.0592895729       18.9052555544       12.0964533835
  C        23.8457583652       18.9296430505       11.4113073907
  C        22.8509288815       17.9619900629       11.6603241561
  C        23.1026667729       16.9900232386       12.6470206617
  C        24.3178476525       16.9608367785       13.3302014729
  C        21.5777654549       17.9491828494       10.8955771282
  C        21.5768749322       17.9269247249        9.4728957317
  C        22.7821284846       17.8035661078        8.7118723563
  C        34.4384692738       17.1944897020       13.9139723002
  C        35.7309601881       17.1482800924       13.1670905957
  C        35.9393569160       16.1792094863       12.1733338098
  C        37.1195398945       16.1707440955       11.4350222003
  C        38.1238692064       17.1289481481       11.6731941245
  C        37.9183636175       18.0784892380       12.6917048741
  C        36.7347025756       18.0932356993       13.4258619517
  C        39.3790994136       17.1395135808       10.8891196236
  C        39.3762310731       17.1573223357        9.4679512217
  C        38.1696456496       17.2786932577        8.7091654519
  C        20.3300839061       17.9428891107        8.7644249239
  C        20.3527311675       17.9510093709       11.5776665145
  C        34.4755699476       17.2471014329        2.1850323899
  C        35.7789962376       17.1758405212        2.9096849240
  C        35.9974681750       16.1884862176        3.8818784281
  C        37.1831311503       16.1726103560        4.6110496721
  C        38.1782598941       17.1433148227        4.3859386873
  C        37.9663198169       18.1061721666        3.3821020061
  C        36.7782652594       18.1270084682        2.6563163643
  C        39.4247137837       17.1626773550        5.1816314571
  C        39.3995368828       17.1699304321        6.6022339072
  C        38.1805588990       17.2828489076        7.3426563783
  C        35.1602693945       26.6333124819        7.2939460266
  C        35.1842089754       26.6500484906        4.4849751460
  C        26.5668583849       17.8244505070        2.3281157757
  C        25.2511416043       17.8722120626        3.0335034389
  C        24.9885807138       18.8783867877        3.9753508549
  C        23.7716865946       18.9053982720        4.6506391290
  C        22.7880858896       17.9259413836        4.4076649890
  C        23.0447493979       16.9447756037        3.4329466999
  C        24.2625485459       16.9158638975        2.7558567609
  C        21.5255693067       17.9092830410        5.1822400414
  C        21.5503041760       17.9048682458        6.6038280925
  C        22.7692312074       17.7928318134        7.3456435139
  C        14.0462976113       17.8287634513        2.2943447417
  C        15.3497237400       17.8858000519        3.0206589089
  C        15.6052713418       18.8894720180        3.9681225886
  C        16.8135877523       18.9107995800        4.6619494046
  C        17.8005626113       17.9313292488        4.4306059287
  C        17.5496086547       16.9517410097        3.4512227888
  C        16.3407826876       16.9258108961        2.7588080935
  C        19.0695593893       17.9159677718        5.1994587705
  C        19.0689299654       17.9166688737        6.6219112751
  C        17.8623125655       17.8186879475        7.3837770973
  C        46.8071338326       17.2203483029        2.1646839901
  C        45.5194670942       17.1644854977        2.9134264194
  C        45.3134845443       16.1917495165        3.9035889580
  C        44.1335086779       16.1810944403        4.6422538339
  C        43.1312499771       17.1432776547        4.4113725373
  C        43.3347405317       18.0959624005        3.3951499297
  C        44.5154030360       18.1106867064        2.6578698693
  C        41.8785924937       17.1597924309        5.1988603382
  C        41.8830365205       17.1593935673        6.6203577282
  C        43.0911734756       17.2534943580        7.3804865822
  C        20.3161149003       17.9305777311        7.3295272288
  C        20.2931957416       17.8951646351        4.5165197773
  C        46.7860946914       17.2311124725       13.8852406772
  C        45.4820426635       17.1266461524       13.1717819772
  C        45.2627666734       16.1322321229       12.2067878223
  C        44.0744951513       16.1099271970       11.4810244653
  C        43.0770894945       17.0787661420       11.7042369785
  C        43.2859224206       18.0416441901       12.7089466436
  C        44.4754924028       18.0706833183       13.4292628095
  C        41.8323550919       17.1075774657       10.9061651024
  C        41.8596601235       17.1307490029        9.4856484964
  C        43.0801320023       17.2372979268        8.7468680513
  C        46.1532782563       26.6371774460        8.7212091970
  C        46.1625852501       26.6561711546       11.5308333860
  C        14.0459322376       17.8326398602       13.7041831927
  C        15.3671858167       17.9096954707       13.0150088790
  C        15.6390587663       18.9264627316       12.0873708258
  C        16.8681879388       18.9665686596       11.4330846346
  C        17.8531173945       17.9891349365       11.6804645550
  C        17.5882188120       17.0016441626       12.6467635443
  C        16.3610764019       16.9609702559       13.3046474135
  C        19.1201193108       17.9666060481       10.9110595776
  C        19.0951740378       17.9417926500        9.4896173412
  C        17.8751238183       17.8300553921        8.7497106640
  C        28.8083848536       14.0912312895        2.3971799050
  C        28.1908845084       12.9194036696        3.0853301960
  C        28.9095165841       12.1781264694        4.0347232470
  C        28.3057998394       11.1056672982        4.6864722815
  C        26.9694230276       10.7506091193        4.4125207113
  C        26.2726780008       11.4720133665        3.4266968403
  C        26.8741743282       12.5448160751        2.7735529269
  C        26.2971230914        9.6726308375        5.1733237630
  C        26.2832153900        9.7000955929        6.5942765966
  C        26.7860992160       10.8135049306        7.3397659382
  C        32.1785599180       21.2382806834        2.1459176712
  C        32.7780004307       22.4023895105        2.8670635188
  C        32.0312929005       23.0817253201        3.8418170350
  C        32.6045113300       24.1191916547        4.5711243261
  C        33.9400087551       24.5052126837        4.3456504533
  C        34.6693877305       23.8442576447        3.3396131116
  C        34.0983355090       22.8012424232        2.6125302204
  C        34.5710054068       25.5798356697        5.1452328893
  C        34.5655648847       25.5508880132        6.5666896110
  C        34.0539188212       24.4375797798        7.3056453990
  C        25.6745842281        8.6220294198        7.3134617227
  C        25.6615442945        8.6211726346        4.5002047752
  C        32.1053821795       21.2275649016       13.8780300262
  C        32.7001765131       22.3763312750       13.1312477540
  C        31.9668839487       23.0424399803       12.1374454509
  C        32.5508592258       24.0697371835       11.4000457099
  C        33.8821623136       24.4622396066       11.6396137317
  C        34.5988489773       23.8103396658       12.6613182361
  C        34.0195184119       22.7767430689       13.3930036755
  C        34.5243008915       25.5422275161       10.8553227492
  C        34.5401789599       25.5322350745        9.4335804371
  C        34.0402592183       24.4291577441        8.6722157880
  C        40.6233265423       17.1348607740        8.7607902963
  C        40.6012137751       17.1309224933       11.5703115273
  C        28.7474899813       14.0673111188       13.8138118842
  C        28.1355098801       12.9206889913       13.0756032342
  C        28.8677838965       12.2273832882       12.1000361312
  C        28.2845950922       11.1724243029       11.4016920586
  C        26.9532002128       10.7845293510       11.6542394694
  C        26.2381752704       11.4658697059       12.6567427950
  C        26.8197389079       12.5214232878       13.3565197846
  C        26.3080328571        9.6955006082       10.8821506102
  C        26.2905870326        9.7114584656        9.4605021425
  C        26.7876632038       10.8200611785        8.7055911957
  C        18.1354394641        3.1811057509        2.3223182623
  C        17.4062145522        4.2783348299        3.0209638379
  C        16.3902575949        4.0000138564        3.9482320616
  C        15.7425603273        5.0400459451        4.6116662096
  C        16.0947888944        6.3837278936        4.3722224613
  C        17.0844512848        6.6531996530        3.4087407318
  C        17.7335274387        5.6158213984        2.7437339910
  C        15.4704680242        7.4914430747        5.1352414535
  C        15.4855800511        7.4906383566        6.5569510623
  C        16.1871146234        6.4970002633        7.3101112105
  C        42.9459788788       31.8596251684        2.0779950999
  C        43.6463887792       30.7719305964        2.8219814778
  C        44.5918394653       31.0932856843        3.8081051971
  C        45.1975444695       30.0877555295        4.5558100199
  C        44.8712351565       28.7346838499        4.3408549796
  C        43.9455135600       28.4203102156        3.3275592525
  C        43.3367025149       29.4254396489        2.5794970931
  C        45.4887582590       27.6553444991        5.1440356661
  C        45.4928323638       27.6809044045        6.5657297949
  C        44.8057184856       28.6889259340        7.3123662228
  C        14.8566599672        8.5631518270        7.2693178965
  C        14.8752741184        8.5632510655        4.4566485457
  C        42.9465222575       31.9616841821       13.8039049591
  C        43.6917840833       30.8855142813       13.0904069223
  C        44.6563190026       31.1914394378       12.1180662680
  C        45.2778761503       30.1718520530       11.4003531267
  C        44.9541459391       28.8215370551       11.6380324069
  C        44.0207756138       28.5238547186       12.6489086452
  C        43.3924889103       29.5406190893       13.3610711849
  C        45.5631847160       27.7241222539       10.8528005136
  C        45.5333223796       27.7173397968        9.4315057299
  C        44.8269951592       28.7075692833        8.6785513691
  C        35.1487634534       26.6228311418        8.7285992156
  C        35.1340762040       26.6011130702       11.5383319857
  C        18.1485928382        3.2470785699       13.7014015280
  C        17.4300716234        4.3438843301       12.9920797841
  C        16.4146068876        4.0526346000       12.0687825316
  C        15.7663565822        5.0833097784       11.3934136028
  C        16.1212948066        6.4285034216       11.6159581219
  C        17.1130241610        6.7118452609       12.5728537326
  C        17.7606598369        5.6829064062       13.2526116647
  C        15.4907395155        7.5241803314       10.8435395232
  C        15.4965763008        7.5075393584        9.4224118546
  C        16.1932934507        6.5058035087        8.6757152466
  H        10.6724712940       12.4656155164       11.8996244755
  H        11.6947919284       10.5508465262       10.6577333306
  H        15.3920046748       11.1690389914       12.7668218333
  H        14.3515334415       13.0717713752       14.0119831826
  H        13.3764316123       11.6313040510        9.1962389691
  H        50.3228081027       22.7481986282       11.9814405893
  H        49.3196594104       24.6226783205       10.6754383060
  H        45.6425803784       24.1617155367       12.8591386499
  H        46.6635464055       22.2907137813       14.1673647067
  H        47.6297850413       23.5758437291        9.2411367949
  H        14.8725137820        8.5884742604       12.6034484306
  H        50.2870354248       22.7023680653        4.0658103261
  H        49.2690957195       24.5752557115        5.3658674407
  H        45.6108809729       24.1098076373        3.1506883007
  H        46.6530308918       22.2544257821        1.8364184722
  H        47.6077301955       23.5517887953        6.8020055894
  H        40.6629835902       17.1440791148        3.4302415732
  H        48.6871730814       14.0949972063       15.7949675097
  H        10.6814670781       12.4665486550        4.0982992743
  H        11.6898624319       10.5246708965        5.3020139873
  H        15.3939495460       11.1594615597        3.2110070308
  H        14.3653858929       13.0877913467        1.9957503792
  H        13.3761488709       11.6223326020        6.7582408841
  H        47.9302971954       14.2183112354        1.7160730161
  H        47.7801246623       14.3738429534       14.4902363175
  H        49.0847651111       18.5528416827        2.8727992147
  H        10.4163520170       14.1342517139        0.0037738792
  H        24.4793969615        3.0315811727       11.9066102394
  H        25.6166576140        4.8935872386       10.6812033516
  H        23.2494543012        7.7558806902       12.8494952093
  H        22.1295897115        5.8843395521       14.0756053864
  H        23.7966546853        5.8005362117        9.2641667358
  H        36.3835086464       32.1830615963       11.9541872376
  H        35.2663464860       30.3546832744       10.6727026973
  H        37.5249364507       27.4375503199       12.8844813742
  H        38.6226937873       29.2787425167       14.1737813072
  H        37.0439145710       29.4402578330        9.2638129135
  H        25.7398407674        8.6115699140       12.6474730552
  H        36.4587104996       32.2370950176        4.1200099409
  H        35.3510867296       30.4153059332        5.4142248497
  H        37.5309601628       27.4854455955        3.1398533037
  H        38.6138265338       29.3189602579        1.8338980390
  H        37.0608789853       29.4592735201        6.8253931548
  H        46.1096688891       26.5878073009        3.3907405764
  H        44.6683555317       35.1162924763       15.8088259558
  H        24.4264218998        3.0448029056        4.1027221021
  H        25.5503629178        4.8878792023        5.3549414068
  H        23.1580664799        7.7703549219        3.2419888532
  H        22.0451052939        5.9153305267        1.9903515304
  H        23.7708539418        5.8027726073        6.8257174136
  H        44.9540910091       34.3906770166        1.7005193919
  H        44.9019177737       34.2068295630       14.4856052848
  H        40.6661350650       33.2092910006        2.8583496483
  H        23.1501994342        1.9582758349        0.0105421859
  H        25.8266206706       19.6523240099       11.9061011815
  H        23.6524082682       19.7077766708       10.6759073686
  H        22.3469071477       16.2335276503       12.8485277237
  H        24.5229777491       16.1964582222       14.0761637645
  H        23.7227621159       17.6853530489        9.2418901606
  H        35.1610313114       15.4417097505       11.9918764246
  H        37.2817887427       15.4110561697       10.6734079568
  H        38.6866577408       18.8258442344       12.8791590724
  H        36.5583122349       18.8398242072       14.1968396225
  H        37.2305677039       17.3979347506        9.2418016561
  H        20.3596557983       17.9913005747       12.6655235837
  H        35.2193892301       15.4495763705        4.0595099794
  H        37.3536220890       15.4036234077        5.3614237941
  H        38.7295325044       18.8611224514        3.2047128701
  H        36.5910812109       18.8866446449        1.9009502525
  H        37.2498397653       17.4038277344        6.7959149223
  H        35.1534442172       26.6769702868        3.3973880335
  H        28.5017370907       21.0714639582       15.9656029967
  H        25.7514628042       19.6312361406        4.1599957062
  H        23.5671886873       19.6901370008        5.3757746634
  H        22.2933785265       16.1818948862        3.2394539669
  H        24.4773678447       16.1467718688        2.0176810518
  H        23.7000809192       17.6666363100        6.8008293938
  H        29.0196716932       21.7108163348        1.7570335355
  H        29.1806010324       21.7275631163       14.6301132721
  H        32.1067801704       18.5679722035        2.9763636766
  H        27.3709714932       19.0220370343        0.0762007263
  H        14.8465913178       19.6485155242        4.1452266793
  H        17.0082617297       19.6954562847        5.3899166091
  H        18.3012592371       16.1876930056        3.2635739372
  H        16.1356473317       16.1563762407        2.0182955166
  H        16.9196593359       17.7013322968        6.8571792099
  H        46.0948519250       15.4579499194        4.0868787225
  H        43.9727208908       15.4191893469        5.4017805359
  H        42.5681972629       18.8465191948        3.2139107649
  H        44.6905218343       18.8601090356        1.8896175084
  H        44.0332078609       17.3699054944        6.8522671130
  H        20.2865713298       17.9219477980        3.4283172764
  H        46.0393254562       15.3923610471       12.0265753749
  H        43.9065774794       15.3393671849       10.7317461424
  H        42.5199152002       18.7933544920       12.8875454179
  H        44.6597679027       18.8335519015       14.1816253877
  H        44.0137289212       17.3400871804        9.2923698171
  H        46.1996131931       26.6828270757       12.6182712150
  H        52.7413010087       21.0626692923        0.1997961613
  H        14.8772085885       19.6788794090       11.8958021124
  H        17.0781339860       19.7577732300       10.7165463903
  H        18.3402408665       16.2408450204       12.8456487520
  H        16.1412485911       16.1855482566       14.0344372538
  H        16.9420961804       17.7212611663        9.2943859404
  H        52.3225893799       21.6733948301       14.2891816267
  H        52.0134101594       21.7022194602        1.5007276066
  H        49.0680154925       18.6078168064       13.1988107120
  H        13.2479497921       19.0161258134       15.9724493299
  H        29.9392206194       12.4570305664        4.2470054180
  H        28.8644803634       10.5292610466        5.4207106638
  H        25.2402070115       11.2074892523        3.2076675093
  H        26.3344299289       13.1233287924        2.0278213607
  H        27.1461026589       11.6828496792        6.7979454919
  H        31.0047927732       22.7704326304        4.0206304762
  H        32.0205258193       24.6465403679        5.3223264538
  H        35.7028694833       24.1336255681        3.1601480587
  H        34.6659248599       22.2652412809        1.8552138846
  H        33.6930876755       23.5715933927        6.7582574008
  H        25.6932761857        8.6006308136        3.4122717357
  H        30.9401245942       22.7378155390       11.9494706402
  H        31.9751145002       24.5870964648       10.6356900704
  H        35.6293259269       24.1029323309       12.8522122556
  H        34.5772567234       22.2510069388       14.1645866796
  H        33.6687892844       23.5564284681        9.2017915415
  H        40.5927827299       17.0881399776       12.6577643400
  H        32.5067538279       14.1512453235        0.2549410369
  H        29.8952147957       12.5293847141       11.9091576147
  H        28.8600772101       10.6298018390       10.6547401897
  H        25.2079890469       11.1794173821       12.8583190259
  H        26.2646587493       13.0636793249       14.1183497712
  H        27.1478923442       11.6943635116        9.2397877818
  H        33.3092890032       14.2292653153       14.4626986161
  H        33.4090787898       14.4097925782        1.6015808198
  H        32.1088134263       18.5015193109       13.1692063293
  H        30.2215095296       14.1924906889        0.0739826260
  H        16.1179765883        2.9635359874        4.1344411564
  H        14.9529175185        4.8207576423        5.3271394247
  H        17.3672093309        7.6860325062        3.2158783267
  H        18.5158216758        5.8184370162        2.0161557013
  H        16.7537076038        5.7396960156        6.7765991732
  H        44.8280552274       32.1403788551        3.9823338351
  H        45.9373761719       30.3415229679        5.3117852020
  H        43.6829637852       27.3782227856        3.1573302182
  H        42.6001867823       29.1901401522        1.8147257146
  H        44.2304750368       29.4367694842        6.7740488314
  H        14.8517057798        8.5465963537        3.3684237360
  H        44.8998320133       32.2341273235       11.9265914481
  H        46.0247561673       30.4130918560       10.6470915118
  H        43.7639556603       27.4841118386       12.8405866842
  H        42.6460945843       29.3178736949       14.1196355606
  H        44.2685754659       29.4705154653        9.2131462953
  H        35.0909255192       26.6146134176       12.6257594822
  H        36.6052129021       35.1340675197        0.1857469497
  H        16.1433344639        3.0130791659       11.8992500782
  H        14.9738279964        4.8565485985       10.6835296109
  H        17.3968484172        7.7472751199       12.7494597408
  H        18.5438614920        5.8933441526       13.9770237438
  H        16.7647533587        5.7555850489        9.2141567916
  H        36.2786719801       34.4824789950       14.2680200214
  H        36.3811598145       34.2090996257        1.5047498987
  H        40.5808068446       33.2029934424       13.1482492044
  H        17.4708252730        1.9478856736       15.9690413325
  H        28.9487016868       19.3166676250        4.4481831881
  H        29.9513893642       19.8638331599       11.6657737429
  H        31.8753391303       15.8785478214       11.5218261896
  H        31.1462323121       15.5619774830        4.4719724025
  H        28.1446050660       17.9569255246        6.8361813037
  H        29.3919901420       15.3129455398        6.5543092253
  H        31.8716986255       19.6555269747        9.1534756330
  H        33.0788707054       17.1442849963        9.4770301376
  H        28.9808818861       16.4614948547        9.4462910120
  H        18.8535604415        0.8690544392        4.3403550201
  H        40.5279750706       35.2289747172       11.9468728042
  H        42.3247040775       34.4194347549       11.5849307904
  H        22.0876076837        0.6925491192        4.3565460713
  H        11.5967487531       18.7131310957        4.3877583494
  H        52.2649969101       18.4312853137       11.6720414833
  H        49.2554785781       16.4768400657       11.5792725609
  H        10.1511210044       15.7981866847        4.2974579532
  H        50.8502679672       17.6923943573       11.9490888241
  H        10.0465748703       17.3945891710        4.0570119130
  H        20.2149273038        0.0023367750        4.0470488963
  H        39.1838283501       36.1246481435       11.6815307380
 Ni        30.7765498215       17.8141911180       10.7400540427
 Ni        31.1124864485       16.4546867041        7.9959679144
 Ni        29.9312932313       19.1821011128        7.7507121076
 Ni        30.1449210192       17.4947647804        5.2447369348
  O        10.6499830193       14.3650811590       13.4807483001
  O        12.6131857162       14.6575295954       14.5788021333
  O        49.1481429857       16.8458508187       15.9846119738
  O        50.3503179749       20.9358011878       13.6428912878
  O        48.3485909885       20.5933650474       14.6607749077
  O        11.0518659266       17.0537834908       14.4956595912
  O        50.3210515222       20.8816595667        2.4119714340
  O        48.3467600475       20.5868443136        1.3322403108
  O        49.5438659854       18.2483841849        2.0733557492
  O        12.3593322270       18.6246654227        0.0047735956
  O        48.6932659829       14.1485212165       14.7462180137
  O         8.2099292095       14.2103691871        1.3276290638
  O        10.7354259562       14.5067090569        2.6694176646
  O        12.5718483684       14.5828426695        1.3335773548
  O        22.8444551302        2.0431207441       13.4821646253
  O        21.6052403023        3.5920341700       14.5848272720
  O        42.0583677206       34.1375499681       15.9739079896
  O        37.9818825459       33.1376810210       13.5673294307
  O        39.2185538255       31.5763563932       14.6619816708
  O        20.3084089646        1.0395833994       14.4970006010
  O        38.0245801477       33.1855389397        2.4204015107
  O        39.2194565036       31.5839657224        1.3312247966
  O        40.6523465522       33.7694358760        2.0653715049
  O        18.2554936695        1.3767081176        0.0018739013
  O        44.6222533016       35.1005468342       14.7536576966
  O        24.2054234681        0.0000441547        1.3259029521
  O        22.7528509791        2.0581527941        2.5890252242
  O        21.6240684643        3.5956737312        1.3470651967
  O        27.4984673558       18.7510458063       13.4901627869
  O        26.7631078263       16.9307195226       14.6449794728
  O        30.6400507695       19.3555927647        0.0620315610
  O        33.5876912696       16.2741164445       13.6599459086
  O        34.2754014749       18.1673265742       14.7289849934
  O        29.5741525682       17.0619298693       14.5649227897
  O        33.6189581366       16.3296466935        2.4179123116
  O        34.3051962498       18.2474054064        1.4102607061
  O        31.6514293730       18.3144775643        2.1578868956
  O        30.3220422679       15.1582627272        0.0881363187
  O        28.5551690364       21.0289979216       14.8954665630
  O        28.5115111767       20.9555893338        1.4149975350
  O        27.4525578704       18.6771492523        2.6635700189
  O        26.6919028773       16.9254318395        1.4196006215
  O        13.1482713976       18.6930437737        2.5924557613
  O        13.9193184549       16.9163191032        1.4102568881
  O        50.5965710824       19.3503093325        0.0254817387
  O        47.6836684204       16.3270045533        2.4224137999
  O        46.9525215128       18.1760966598        1.3291113475
  O        11.0699728051       17.0154519757        1.4946787455
  O        47.6760789322       16.3355625621       13.6479437634
  O        46.9280764230       18.2358876730       14.6600519637
  O        49.5689118081       18.3176866087       13.9771352997
  O        10.3187651450       15.1000811070        0.0021588756
  O        52.6707727665       21.0278892035        1.2469180178
  O        12.1468683775       20.8912622642       14.6681539559
  O        13.1078884837       18.6137496442       13.3206023197
  O        13.9573613309       16.9871582733       14.6601775516
  O        29.9923919077       14.4401467207        2.7366083913
  O        28.0889955830       14.6529611437        1.5003515908
  O        32.1387532450       16.8528855421        0.0807558574
  O        30.9653878125       20.9531505211        2.4114541827
  O        32.9462202735       20.5997874004        1.3404521728
  O        29.5662128496       17.0712634445        1.5802401949
  O        30.8730749013       20.9500290748       13.6582772567
  O        32.8769334643       20.5867025353       14.6625709441
  O        31.6841084960       18.2550953172       14.0055435050
  O        28.2599377897       18.6323892967        0.0792261586
  O        32.4924366002       14.2130810165        1.3336593086
  O        32.4046168955       14.2165516140       14.8174567188
  O        29.9191214842       14.4376243890       13.4847219660
  O        28.0392508588       14.5882798497       14.7469257573
  O        17.8892378732        1.9666753714        2.6679443004
  O        18.9561971321        3.5271487666        1.4131062042
  O        39.1685941039       34.1388918240        0.0023465267
  O        43.2802483431       33.0589961884        2.3368676019
  O        42.0346116816       31.5064435885        1.2467580490
  O        20.3176949154        1.0368390074        1.4852589127
  O        43.2761045899       33.1826016410       13.5697710952
  O        42.0053054629       31.5840946122       14.5778517563
  O        40.5790319140       33.7751077259       13.9307699456
  O        22.3673754093        1.3846252854        0.0030516373
  O        36.6727859750       35.0997942314        1.2383944344
  O        16.4456178345        0.0642681046       14.6631886705
  O        17.9364957844        2.0433832394       13.3212670494
  O        18.9189630289        3.5931821822       14.6607646775
  O        29.9080109608       18.9794697868       12.0704726328
  O        29.7457895801       18.9783225830        3.9964603871
  O        31.2939086220       16.4167369890       12.0893498586
  O        31.3027695635       16.4099528411        4.0099811802
  O        32.1866317075       16.7773068771        9.5729489278
  O        29.6256353772       17.1394588389        9.1781209034
  O        30.2413912398       15.7593634575        6.4118510527
  O        31.2966814440       18.1707209819        6.8384289140
  O        30.9214384263       19.5608231570        9.3318990888
  O        28.7921900490       18.5373528371        6.3983537646
  O        39.4567704955       35.2438691909       11.9968650713
  O        19.1414825575        0.0045895854        3.9956079551
  O        41.9695442826       35.1726158418       12.0820324906
  O        21.6913801670       -0.0690916946        3.9010773128
  O        51.3651710111       18.6143056771       12.0002688034
  O        10.7510170207       18.7472163133        3.9100601131
  O        50.0798751965       16.4127828931       12.0865831666
  O         9.5249894989       16.4829823073        3.9963147490
 Zr         9.2976910739       16.0526494940       14.1774357963
 Zr        49.8371055639       16.0065396444        1.7514097565
 Zr        22.0734651391        0.0304084630       14.1838122363
 Zr        42.4611517332       35.1540247789        1.8061435699
 Zr        29.5980883218       19.0831169150       14.2643124519
 Zr        29.5646753940       19.1654130443        1.8629443134
 Zr        11.0386403524       19.0518161752        1.8328608008
 Zr        11.0446611419       19.1546961185       14.2456675632
 Zr        31.3514720135       16.1036432127        1.8734615051
 Zr        31.3848915901       16.0159101787       14.2533863195
 Zr        18.6013988268       -0.0008189782        1.7684233468
 Zr        18.5066874306       -0.0072201860       14.2087492109
 Zr        12.3029605466       16.3235505334       15.9851740546
 Zr        48.6177165877       18.8333197426        0.0152611125
 Zr        20.3153055282        2.4739580554       15.9852908528
 Zr        40.6439505912       32.6877345499       15.9731981977
 Zr        28.3429883481       16.3348766859        0.0849249754
 Zr        32.6204053298       18.8292394473        0.0568266649
  H        32.1645368972       18.5972143582        6.7350321246
  H        32.9137307635       15.8173470692        6.4961933058
  H        33.1804305384       15.7226096318        7.1912075751
  H        28.7619960548       20.4229901075        8.2060783589
  H        28.5510655719       19.8065535801        8.6746026018
