     576
 i =      272, E =     -4780.0412386508
  C        11.8588369016       14.0535001630       13.7364206019
  C        12.4563563106       12.8906453167       13.0180820246
  C        11.7045542507       12.1714485112       12.0767088859
  C        12.2809629770       11.1092550339       11.3843833708
  C        13.6216599367       10.7397527427       11.6118808609
  C        14.3549675781       11.4436202828       12.5850185005
  C        13.7820510168       12.5086018665       13.2764937020
  C        14.2611422870        9.6490339590       10.8385258890
  C        14.2564117289        9.6569324680        9.4168331724
  C        13.7432323027       10.7590660655        8.6629519644
  C        49.1269989500       21.2331922978       13.8745499520
  C        48.5502688706       22.4012214755       13.1474916491
  C        49.3002365102       23.0684403899       12.1663939985
  C        48.7332976719       24.1076031403       11.4332132352
  C        47.4028244427       24.5093612985       11.6619860973
  C        46.6719644572       23.8606263535       12.6756519536
  C        47.2344231298       22.8157100289       13.4049741629
  C        46.7724885999       25.5870095198       10.8647266716
  C        46.7613289766       25.5573310348        9.4429685636
  C        47.2612175388       24.4422179754        8.6994705302
  C        14.8603628836        8.5706091136        8.7035664803
  C        14.8919825801        8.5971372749       11.5151827465
  C        49.1133056041       21.2034488603        2.1504949021
  C        48.5279251821       22.3648394291        2.8777089150
  C        49.2670963587       23.0254354853        3.8707294550
  C        48.6907714112       24.0600050840        4.6021919479
  C        47.3604308397       24.4569177479        4.3638142390
  C        46.6401098139       23.8121780919        3.3401197976
  C        47.2136594639       22.7762619056        2.6083484867
  C        46.7219287297       25.5318604025        5.1548343259
  C        46.7335091680       25.5281358625        6.5765388909
  C        47.2489241968       24.4289087971        7.3329185484
  C        40.6353752101       17.1577507249        7.3257242300
  C        40.6551800909       17.1773194039        4.5168432422
  C        11.8831242429       14.0865243022        2.2906217839
  C        12.4725069396       12.9108525383        2.9949359744
  C        11.7149427522       12.1774300798        3.9208376593
  C        12.2816018931       11.0950107665        4.5892394200
  C        13.6205385526       10.7215679996        4.3576173494
  C        14.3586002820       11.4373975825        3.3970856484
  C        13.7931001721       12.5185313478        2.7244004779
  C        14.2541244528        9.6247859445        5.1279929480
  C        14.2527022200        9.6446727522        6.5498276731
  C        13.7427382049       10.7535758179        7.2969078450
  C        22.5126625405        3.2442869980       13.7483433697
  C        23.2292645932        4.3484857882       13.0497008912
  C        24.2252827614        4.0664117395       12.1030388121
  C        24.8544803754        5.1046369428       11.4211519865
  C        24.5034792895        6.4471121060       11.6658597517
  C        23.5359909296        6.7206941267       12.6498396667
  C        22.9019883446        5.6842635482       13.3300758406
  C        25.1106716003        7.5524409119       10.8897959555
  C        25.0793788316        7.5463939469        9.4684221889
  C        24.3736349408        6.5489624021        8.7231749777
  C        38.3031965876       31.9295939415       13.8438495765
  C        37.5747341685       30.8392014131       13.1338960001
  C        36.6161740807       31.1417069718       12.1548361575
  C        36.0005439301       30.1203947059       11.4365293754
  C        36.3285576917       28.7716537702       11.6762926526
  C        37.2575031522       28.4765452829       12.6917334256
  C        37.8774510804       29.4966226845       13.4085463714
  C        35.7271999194       27.6792205998       10.8791638542
  C        35.7593866294       27.6940410826        9.4578414875
  C        36.4668889191       28.6953989695        8.7206249451
  C        25.7020887674        8.6160590790        8.7479743052
  C        25.7119131922        8.6252603260       11.5600587678
  C        38.3289834867       31.9622526721        2.1611819028
  C        37.6077411183       30.8884646235        2.9030452345
  C        36.6802091408       31.1965303636        3.9098925399
  C        36.0708866452       30.1774380696        4.6393090432
  C        36.3748251327       28.8251017640        4.3849472924
  C        37.2798710572       28.5269680973        3.3479909769
  C        37.8914806593       29.5425935545        2.6200803984
  C        35.7674032044       27.7255574969        5.1689673779
  C        35.7798313215       27.7179078239        6.5909316964
  C        36.4763090309       28.7070709118        7.3540870152
  C        46.1354485443       26.6207414260        7.2866808608
  C        46.0880671654       26.5802805853        4.4787846561
  C        22.4605582858        3.2559484230        2.2630608206
  C        23.1535899074        4.3645357103        2.9865674207
  C        24.1542774715        4.0784780883        3.9289100901
  C        24.7813428661        5.1086321366        4.6255414807
  C        24.4280908219        6.4545982528        4.4023840279
  C        23.4505131289        6.7338652482        3.4285756839
  C        22.8186356406        5.7039562415        2.7325330135
  C        25.0589178588        7.5525928628        5.1765827019
  C        25.0531216329        7.5460393084        6.5994295514
  C        24.3593601661        6.5497866166        7.3565468517
  C        26.6227658783       17.8605054394       13.7775056030
  C        25.3139124708       17.9061360719       13.0534073966
  C        25.0584945355       18.8964313360       12.0919411332
  C        23.8453268215       18.9162158495       11.4058919761
  C        22.8513050376       17.9488254517       11.6589835803
  C        23.1036752514       16.9810902300       12.6495949016
  C        24.3186829876       16.9559884288       13.3331774919
  C        21.5779394909       17.9326258777       10.8947667258
  C        21.5768818347       17.9056362205        9.4722622833
  C        22.7817863077       17.7784691045        8.7112128667
  C        34.4415207160       17.1966493909       13.9182675984
  C        35.7330028902       17.1562111168       13.1686486042
  C        35.9413737794       16.1923515993       12.1699749378
  C        37.1205916944       16.1887374013       11.4301402820
  C        38.1244736160       17.1464367980       11.6721387659
  C        37.9188515424       18.0913589825       12.6948810987
  C        36.7357016136       18.1014953689       13.4300804324
  C        39.3796723702       17.1588186306       10.8881087528
  C        39.3767288728       17.1777324410        9.4669602034
  C        38.1704871353       17.3037281258        8.7082930690
  C        20.3301078904       17.9225207571        8.7639900332
  C        20.3530376511       17.9384084620       11.5770692516
  C        34.4742002825       17.2475351329        2.1855656414
  C        35.7784155679       17.1746002605        2.9085607284
  C        35.9929105666       16.1953493309        3.8897735575
  C        37.1784936419       16.1817196498        4.6192004638
  C        38.1776875717       17.1461978132        4.3850031568
  C        37.9699074866       18.0998515307        3.3714581456
  C        36.7817974577       18.1189419264        2.6459244745
  C        39.4240132080       17.1684046055        5.1806798524
  C        39.3993185055       17.1829505670        6.6012902955
  C        38.1810770673       17.3040798589        7.3417445186
  C        35.1483476616       26.6393956019        7.2949061664
  C        35.1750247664       26.6561107788        4.4857598502
  C        26.5667414340       17.8230190331        2.3281079952
  C        25.2513459438       17.8695526082        3.0337785807
  C        24.9864844720       18.8737146235        3.9771248698
  C        23.7696920997       18.8963234622        4.6529580021
  C        22.7882149291       17.9152861151        4.4078272674
  C        23.0467890594       16.9366622508        3.4311027591
  C        24.2647536096       16.9115029178        2.7544022764
  C        21.5254715595       17.8950660311        5.1819971528
  C        21.5501274266       17.8851734205        6.6034641672
  C        22.7688429963       17.7688515915        7.3449566877
  C        14.0462170716       17.8282526223        2.2944706283
  C        15.3496275349       17.8833788178        3.0208470391
  C        15.6059394040       18.8842456244        3.9710180517
  C        16.8143770601       18.9027155451        4.6647754434
  C        17.8005912944       17.9231756822        4.4304930508
  C        17.5490040829       16.9466737566        3.4482223768
  C        16.3400467763       16.9234875266        2.7561062915
  C        19.0695853828       17.9042952966        5.1991512939
  C        19.0688892065       17.9006278378        6.6215646433
  C        17.8622517828       17.8019743649        7.3833947511
  C        46.8070902726       17.2201862594        2.1644642013
  C        45.5190858504       17.1641358094        2.9125673303
  C        45.3130037379       16.1921775155        3.9034688860
  C        44.1328052465       16.1819640120        4.6418279161
  C        43.1304640769       17.1437320626        4.4097171399
  C        43.3339060434       18.0953453861        3.3924976759
  C        44.5147890029       18.1096987486        2.6556267389
  C        41.8779777672       17.1623357195        5.1974095548
  C        41.8828489854       17.1663716581        6.6188825879
  C        43.0913554860       17.2593944981        7.3785639327
  C        20.3160235604       17.9112630901        7.3291758538
  C        20.2932131701       17.8846235520        4.5160782119
  C        46.7863118065       17.2316546366       13.8848348433
  C        45.4824157401       17.1295401284       13.1707653921
  C        45.2613777598       16.1364967793       12.2047921016
  C        44.0731182617       16.1172820207       11.4788338847
  C        43.0776313138       17.0880132352       11.7026619297
  C        43.2882272479       18.0494446371       12.7083669279
  C        44.4776158715       18.0752897102       13.4289663567
  C        41.8329087014       17.1204681378       10.9047360235
  C        41.8600100722       17.1433260336        9.4842217188
  C        43.0805573930       17.2456830054        8.7450000709
  C        46.1532311300       26.6371716578        8.7212310876
  C        46.1626423297       26.6561852547       11.5308631616
  C        14.0458885644       17.8319122359       13.7038410988
  C        15.3671029808       17.9064849965       13.0142644803
  C        15.6401063329       18.9201811410       12.0836395555
  C        16.8693509557       18.9570183613       11.4292831954
  C        17.8533417302       17.9794096596       11.6797883369
  C        17.5874150710       16.9952284322       12.6491212018
  C        16.3601390630       16.9577031618       13.3068466093
  C        19.1203392450       17.9528242513       10.9105138548
  C        19.0953035503       17.9240982411        9.4891980356
  C        17.8751882014       17.8124100463        8.7493465372
  C        28.8088337835       14.0921911017        2.3979352103
  C        28.1956745606       12.9177328199        3.0850623336
  C        28.9183031351       12.1756913906        4.0308850985
  C        28.3183720623       11.1006079363        4.6818184238
  C        26.9816208022       10.7442034366        4.4114475061
  C        26.2808668989       11.4665467968        3.4290577781
  C        26.8787831042       12.5414460313        2.7760752956
  C        26.3122978061        9.6646399891        5.1727384633
  C        26.3021306536        9.6901379874        6.5938459109
  C        26.8085867031       10.8018067493        7.3395033981
  C        32.1764738222       21.2369257660        2.1489621660
  C        32.7721368672       22.4042104836        2.8685682755
  C        32.0225090699       23.0869156179        3.8388263768
  C        32.5938077971       24.1261614198        4.5673365116
  C        33.9303227175       24.5109863182        4.3455214191
  C        34.6624475084       23.8470754810        3.3434211034
  C        34.0933754741       22.8023090671        2.6172510143
  C        34.5600965123       25.5864668261        5.1453472529
  C        34.5535434214       25.5575532844        6.5667910391
  C        34.0421785696       24.4435877456        7.3049293000
  C        25.6928372155        8.6125133824        7.3133119274
  C        25.6740810502        8.6145775375        4.4998918511
  C        32.1016715008       21.2230580209       13.8758111829
  C        32.6945910342       22.3726052080       13.1276483465
  C        31.9592154032       23.0375887360       12.1344379662
  C        32.5408390725       24.0676702571       11.3984539815
  C        33.8715149459       24.4631887932       11.6381729053
  C        34.5900231520       23.8111229219       12.6583961188
  C        34.0130779175       22.7755243401       13.3892091807
  C        34.5121451301       25.5455021869       10.8555367016
  C        34.5282363766       25.5369756030        9.4338555606
  C        34.0293334522       24.4341645249        8.6714217957
  C        40.6235441196       17.1505066029        8.7595976847
  C        40.6018977454       17.1465842667       11.5691075724
  C        28.7496561923       14.0681857922       13.8139902661
  C        28.1402786886       12.9195226221       13.0759527309
  C        28.8767957756       12.2246731644       12.1046444772
  C        28.2974228094       11.1673057901       11.4066810115
  C        26.9653252576       10.7789334963       11.6547834376
  C        26.2458834577       11.4619826189       12.6530205527
  C        26.8239149869       12.5195535788       13.3528405053
  C        26.3233370749        9.6880483450       10.8823970024
  C        26.3094493185        9.7018504243        9.4605846909
  C        26.8102621301       10.8085071106        8.7053265814
  C        18.1354626087        3.1811335250        2.3222930253
  C        17.4062360182        4.2783519082        3.0209057433
  C        16.3903821133        4.0000407172        3.9482990678
  C        15.7427186154        5.0400638388        4.6117739310
  C        16.0948404394        6.3837604074        4.3722170586
  C        17.0843922650        6.6532294870        3.4086128110
  C        17.7334325230        5.6158521035        2.7435715858
  C        15.4705487343        7.4914632265        5.1352741879
  C        15.4856517520        7.4906527234        6.5569853184
  C        16.1871867900        6.4970215224        7.3101544194
  C        42.9459286044       31.8596087116        2.0780129156
  C        43.6463096943       30.7719290216        2.8220120838
  C        44.5916448510       31.0932828227        3.8082527479
  C        45.1973848560       30.0877432209        4.5559118363
  C        44.8711622849       28.7346562149        4.3408944400
  C        43.9455887822       28.4202933991        3.3274544033
  C        43.3367375736       29.4254247413        2.5794299725
  C        45.4887341550       27.6553365034        5.1440616826
  C        45.4927744234       27.6808859930        6.5657567691
  C        44.8056567436       28.6889039324        7.3123942807
  C        14.8566412920        8.5631145185        7.2693514212
  C        14.8753750761        8.5632926789        4.4566862239
  C        42.9465147405       31.9616858287       13.8038996253
  C        43.6918250659       30.8855349730       13.0904703749
  C        44.6562257449       31.1914472108       12.1179882471
  C        45.2777736409       30.1718594005       11.4002755418
  C        44.9542017018       28.8215268420       11.6380892653
  C        44.0209938652       28.5238618016       12.6491268180
  C        43.3927143329       29.5406268328       13.3612903660
  C        45.5631825150       27.7241065962       10.8528299214
  C        45.5333074431       27.7173471050        9.4315343268
  C        44.8269246916       28.7075362587        8.6785799630
  C        35.1368268097       26.6280073422        8.7296433860
  C        35.1223403108       26.6037440331       11.5395230748
  C        18.1486181296        3.2470935520       13.7014524685
  C        17.4300633272        4.3438818213       12.9921936967
  C        16.4147127734        4.0526330281       12.0687619287
  C        15.7664252344        5.0832811921       11.3933992509
  C        16.1212480814        6.4284971986       11.6160169715
  C        17.1128281162        6.7118600996       12.5730671884
  C        17.7604899155        5.6829321335       13.2528127172
  C        15.4907439752        7.5241825956       10.8435753793
  C        15.4965766220        7.5075046796        9.4224471137
  C        16.1933569797        6.5058060193        8.6757591523
  H        10.6723312659       12.4653645285       11.8999004542
  H        11.6946377680       10.5505546161       10.6580430188
  H        15.3921427647       11.1693605044       12.7664441822
  H        14.3516802555       13.0721348444       14.0115644585
  H        13.3762422389       11.6311895181        9.1962796061
  H        50.3229065093       22.7483198307       11.9815616867
  H        49.3197615578       24.6228102964       10.6755768685
  H        45.6425578703       24.1615802108       12.8589986152
  H        46.6635309928       22.2905701281       14.1672241101
  H        47.6298655024       23.5758886438        9.2411582693
  H        14.8724609399        8.5884752871       12.6034919185
  H        50.2871069185       22.7024994342        4.0657014040
  H        49.2691568486       24.5753819850        5.3657557592
  H        45.6108009815       24.1096356606        3.1508786316
  H        46.6529545571       22.2542461179        1.8366044526
  H        47.6077877069       23.5518318704        6.8020092614
  H        40.6621309221       17.1401971535        3.4292071175
  H        48.6871303208       14.0950204415       15.7949571797
  H        10.6813724803       12.4662716409        4.0980293622
  H        11.6897967096       10.5244034073        5.3017526480
  H        15.3941684634       11.1598349438        3.2114213918
  H        14.3655630108       13.0881486023        1.9961609082
  H        13.3760088737       11.6222274301        6.7582636828
  H        47.9303101384       14.2182980678        1.7160985562
  H        47.7801075553       14.3737763617       14.4901803942
  H        49.0847668016       18.5528244371        2.8727772323
  H        10.4163201967       14.1342456655        0.0037799764
  H        24.4837909689        3.0272858792       11.9119007832
  H        25.6267274316        4.8857739247       10.6868803440
  H        23.2579968575        7.7543064771       12.8452207262
  H        22.1326749309        5.8861973525       14.0713755795
  H        23.8123635497        5.7927376684        9.2642010188
  H        36.3786401759       32.1846480577       11.9588694719
  H        35.2568876746       30.3582511266       10.6791153902
  H        37.5182922947       27.4377992327       12.8836622530
  H        38.6205283622       29.2771009447       14.1715095548
  H        37.0334468690       29.4439664564        9.2668246909
  H        25.7495051384        8.6072029015       12.6477707356
  H        36.4578155479       32.2406342714        4.1182712641
  H        35.3462400601       30.4217001249        5.4129068558
  H        37.5262597675       27.4868721323        3.1449442936
  H        38.6130065591       29.3177114529        1.8384372409
  H        37.0511430385       29.4641988459        6.8285576155
  H        46.1096804310       26.5877945003        3.3907535311
  H        44.6683909558       35.1162641737       15.8088313423
  H        24.4315453389        3.0402481666        4.0967958635
  H        25.5610849014        4.8798246904        5.3488705209
  H        23.1663203031        7.7684224252        3.2471126298
  H        22.0481100599        5.9168880990        1.9951502915
  H        23.7865550435        5.7947623927        6.8259327560
  H        44.9541161651       34.3906347021        1.7004369345
  H        44.9020174794       34.2068708169       14.4855804297
  H        40.6662231993       33.2093877671        2.8583546440
  H        23.1504009918        1.9581068139        0.0105224489
  H        25.8246307008       19.6439574690       11.8983595042
  H        23.6519365392       19.6908953652       10.6668469482
  H        22.3485202464       16.2247948147       12.8541272666
  H        24.5246046614       16.1948750393       14.0822453960
  H        23.7221190586       17.6594956639        9.2415484337
  H        35.1639016330       15.4547479602       11.9855631126
  H        37.2827635564       15.4328430545       10.6647570314
  H        38.6866553057       18.8384984488       12.8852373061
  H        36.5588919356       18.8444359804       14.2045039623
  H        37.2322638875       17.4286935864        9.2412000718
  H        20.3602386716       17.9829890660       12.6647549718
  H        35.2115081308       15.4616372859        4.0744174941
  H        37.3458880668       15.4192028301        5.3768313519
  H        38.7363253337       18.8497290844        3.1865494286
  H        36.5975504349       18.8722165881        1.8835009290
  H        37.2509459118       17.4282605634        6.7947060419
  H        35.1459997055       26.6828458006        3.3981184159
  H        28.5048920900       21.0640232118       15.9609188678
  H        25.7464728930       19.6292813715        4.1627310644
  H        23.5638596407       19.6789503478        5.3800115886
  H        22.2968531952       16.1728382026        3.2357854577
  H        24.4814859223       16.1442074204        2.0149406953
  H        23.6993029825       17.6422766784        6.7995175396
  H        29.0243510812       21.7072282641        1.7537965319
  H        29.1822403024       21.7247894623       14.6299421072
  H        32.1081980173       18.5639550841        2.9874014976
  H        27.3735020255       19.0168425111        0.0804917385
  H        14.8478064148       19.6433091383        4.1503997925
  H        17.0096825071       19.6850523831        5.3950644476
  H        18.3001760213       16.1827372287        3.2582397253
  H        16.1342013920       16.1562743203        2.0135113465
  H        16.9195422901       17.6854871265        6.8566951897
  H        46.0945232573       15.4587786908        4.0877334113
  H        43.9719942827       15.4208545529        5.4021489573
  H        42.5671850575       18.8454833635        3.2102999192
  H        44.6900089315       18.8584104579        1.8867110405
  H        44.0335563199       17.3725100741        6.8499407982
  H        20.2866403428       17.9156237157        3.4279879610
  H        46.0364685244       15.3952150446       12.0239841195
  H        43.9037447223       15.3476953150       10.7288865983
  H        42.5237203288       18.8025385993       12.8875529359
  H        44.6632736430       18.8370278598       14.1821124283
  H        44.0145475838       17.3470337288        9.2901008852
  H        46.1997165076       26.6828369686       12.6182990081
  H        52.7413431315       21.0626858131        0.1998035022
  H        14.8790876560       19.6728381019       11.8896840618
  H        17.0801064396       19.7457876327       10.7103043190
  H        18.3387243843       16.2343911729       12.8505290571
  H        16.1394734276       16.1846904921       14.0389110747
  H        16.9421478936       17.7039464379        9.2940914525
  H        52.3228826992       21.6734498513       14.2890265619
  H        52.0135693658       21.7023303451        1.5007622653
  H        49.0681478519       18.6078628071       13.1987805693
  H        13.2480105145       19.0159724656       15.9723775348
  H        29.9479145373       12.4562004855        4.2413776920
  H        28.8803068092       10.5234627762        5.4129879308
  H        25.2480655643       11.2010737583        3.2127499989
  H        26.3359927630       13.1204659115        2.0329243758
  H        27.1710363785       11.6701556454        6.7977307692
  H        30.9947185557       22.7778671537        4.0143832988
  H        32.0073143087       24.6561768439        5.3147466069
  H        35.6966585069       24.1354062418        3.1664957599
  H        34.6633201846       22.2640289173        1.8633144171
  H        33.6827843630       23.5778091587        6.7561893337
  H        25.7027094629        8.5956190241        3.4118421623
  H        30.9330153114       22.7294374601       11.9478683014
  H        31.9632724250       24.5860755205       10.6360790138
  H        35.6200060718       24.1055636988       12.8491671164
  H        34.5719970030       22.2501957855       14.1602373861
  H        33.6599531897       23.5608359618        9.2012846826
  H        40.5934742149       17.1025308830       12.6565064101
  H        32.5045503571       14.1527789303        0.2635222644
  H        29.9044936326       12.5278072398       11.9169260749
  H        28.8764299910       10.6233733128       10.6633970969
  H        25.2151324604       11.1751663606       12.8511913804
  H        26.2655145668       13.0628266700       14.1115427429
  H        27.1728804068       11.6819510820        9.2393012742
  H        33.3112506982       14.2270330258       14.4655348317
  H        33.4088555925       14.4149748990        1.6022726164
  H        32.1136379673       18.5101739355       13.1794160271
  H        30.2203886522       14.1929052822        0.0825526958
  H        16.1181519897        2.9635619292        4.1345825812
  H        14.9531535874        4.8207607188        5.3273289553
  H        17.3670536144        7.6860719499        3.2156557529
  H        18.5156223342        5.8184961598        2.0158863726
  H        16.7538325130        5.7397461191        6.7766577314
  H        44.8277802554       32.1403828968        3.9825513911
  H        45.9371349290       30.3415413571        5.3119570051
  H        43.6831571247       27.3781910864        3.1571385560
  H        42.6003388731       29.1900917918        1.8145563558
  H        44.2303823624       29.4367314078        6.7740891637
  H        14.8518156029        8.5466638248        3.3684597654
  H        44.8996331449       32.2341381840       11.9264061150
  H        46.0245544248       30.4131169364       10.6469214020
  H        43.7643311824       27.4841056120       12.8409434075
  H        42.6464684815       29.3178530797       14.1199896017
  H        44.2685056862       29.4704841882        9.2131701802
  H        35.0795327039       26.6161191561       12.6269855539
  H        36.6052330693       35.1341388618        0.1857313736
  H        16.1434891306        3.0130770668       11.8991533942
  H        14.9739821159        4.8565074420       10.6834251579
  H        17.3965534081        7.7472966556       12.7497933370
  H        18.5435718844        5.8933927811       13.9773508909
  H        16.7648440989        5.7556102857        9.2142020559
  H        36.2786269539       34.4826215147       14.2679573633
  H        36.3810874485       34.2091586872        1.5046709549
  H        40.5806937762       33.2029870570       13.1482206141
  H        17.4709595393        1.9479632403       15.9690392493
  H        28.8892162374       19.2242817983        4.5020884526
  H        29.8930971658       19.6680309020       11.5851036085
  H        32.0410999202       15.7890569743       11.5806408775
  H        31.0980349780       15.5547881710        4.4997430789
  H        27.9985904809       17.9027022552        6.8570670732
  H        29.3152348682       15.2830460058        6.5457578535
  H        31.7415421731       19.9274197358        9.5156124912
  H        33.1184939977       17.0561704561        9.3099440165
  H        28.8372427775       16.7589958661        9.4165015812
  H        18.8537483426        0.8690676099        4.3403854236
  H        40.5282329490       35.2291071895       11.9468496903
  H        42.3246657096       34.4194615727       11.5849004525
  H        22.0876247014        0.6923356498        4.3566569569
  H        11.5968024837       18.7130969888        4.3877302496
  H        52.2649385601       18.4314613605       11.6719184603
  H        49.2558655234       16.4766864882       11.5790887548
  H        10.1509792905       15.7981811767        4.2975417968
  H        50.8503168758       17.6923064090       11.9491307441
  H        10.0465487104       17.3945816328        4.0570067138
  H        20.2151933071        0.0023389463        4.0470003440
  H        39.1840323476       36.1248551939       11.6815239927
 Ni        30.9462505935       17.7164359290       10.7456089976
 Ni        31.1197295680       16.2939384344        7.9958488585
 Ni        29.9236881762       18.8530749570        8.1589062505
 Ni        30.1772222079       17.4844891634        5.4090458058
  O        10.6499628352       14.3650867520       13.4807552326
  O        12.6131809582       14.6574844429       14.5787912808
  O        49.1481454549       16.8458162914       15.9846087102
  O        50.3503387136       20.9358013193       13.6428703158
  O        48.3486068790       20.5933749957       14.6607753297
  O        11.0518664596       17.0537719638       14.4956228349
  O        50.3210381548       20.8816855847        2.4119830558
  O        48.3467676132       20.5868247690        1.3322671628
  O        49.5439055638       18.2484083616        2.0733430775
  O        12.3593069825       18.6247012345        0.0047846223
  O        48.6932700761       14.1485776411       14.7462049429
  O         8.2099318049       14.2103741513        1.3276265293
  O        10.7354186961       14.5067108849        2.6694185201
  O        12.5718412672       14.5828049337        1.3335856044
  O        22.8444810750        2.0428147074       13.4822044634
  O        21.6057038470        3.5922941866       14.5843870222
  O        42.0583330519       34.1375490081       15.9738837512
  O        37.9817716360       33.1375711235       13.5672758995
  O        39.2183000515       31.5761641893       14.6617003309
  O        20.3084511557        1.0396383062       14.4970547313
  O        38.0246146152       33.1856902473        2.4203418736
  O        39.2192330310       31.5837796355        1.3314571799
  O        40.6523264270       33.7694580679        2.0653217191
  O        18.2555992443        1.3767326859        0.0018764743
  O        44.6222399183       35.1005439246       14.7536644994
  O        24.2054218332        0.0000196372        1.3258818022
  O        22.7529225239        2.0577413093        2.5889173421
  O        21.6244182825        3.5959983145        1.3477036639
  O        27.4960702873       18.7515817053       13.4912673168
  O        26.7639391698       16.9300891214       14.6457928708
  O        30.6351596750       19.3498926982        0.0724935320
  O        33.5942032803       16.2735842968       13.6654802533
  O        34.2745835177       18.1696065129       14.7318708195
  O        29.5768224646       17.0564673518       14.5643755467
  O        33.6165674604       16.3303078363        2.4203759033
  O        34.3041970811       18.2474334571        1.4112260005
  O        31.6498785799       18.3145304696        2.1688005125
  O        30.3229389489       15.1584992453        0.0935445232
  O        28.5554272781       21.0270692107       14.8936386521
  O        28.5131628148       20.9514130090        1.4177858654
  O        27.4522312282       18.6773482485        2.6642664670
  O        26.6924247245       16.9252719801        1.4199268429
  O        13.1485093033       18.6928739668        2.5925542451
  O        13.9191088498       16.9161961613        1.4100014773
  O        50.5966504943       19.3503198809        0.0254635836
  O        47.6836849983       16.3269713173        2.4224208745
  O        46.9525751606       18.1760816277        1.3290838128
  O        11.0699750984       17.0154639302        1.4947085590
  O        47.6758543409       16.3356071029       13.6477538922
  O        46.9285278259       18.2359001787       14.6602703352
  O        49.5689533461       18.3176942673       13.9771464243
  O        10.3187400567       15.1000759141        0.0021908515
  O        52.6707886034       21.0278834282        1.2469142738
  O        12.1468663210       20.8912332105       14.6681558544
  O        13.1082067064       18.6136157491       13.3205335299
  O        13.9571312354       16.9870426171       14.6603735653
  O        29.9932552085       14.4424378274        2.7392264557
  O        28.0895518257       14.6528183836        1.5015321235
  O        32.1370461896       16.8503025768        0.0897851621
  O        30.9630792631       20.9486709423        2.4164312358
  O        32.9440971460       20.6014265467        1.3426902489
  O        29.5680693179       17.0713892950        1.5833138735
  O        30.8703651404       20.9435144880       13.6555941740
  O        32.8754379251       20.5864303021       14.6621793383
  O        31.6864425012       18.2520206380       14.0107258010
  O        28.2630828606       18.6285000340        0.0824962923
  O        32.4920143841       14.2145830860        1.3377006902
  O        32.4058722978       14.2146832911       14.8186379945
  O        29.9205028564       14.4397767070       13.4843407676
  O        28.0398020370       14.5877907627       14.7468554316
  O        17.8892592292        1.9666867088        2.6679147706
  O        18.9562523436        3.5271743988        1.4130858951
  O        39.1685826728       34.1388749502        0.0022987832
  O        43.2802363535       33.0589870915        2.3368329745
  O        42.0345425554       31.5064437275        1.2467566202
  O        20.3177744794        1.0368944536        1.4851493167
  O        43.2760870519       33.1826051847       13.5697758934
  O        42.0052845390       31.5841072526       14.5778658768
  O        40.5790050303       33.7750795777       13.9307521528
  O        22.3674038712        1.3846896707        0.0030494153
  O        36.6728107456       35.0998307976        1.2383762993
  O        16.4456510774        0.0643247379       14.6631863043
  O        17.9365094821        2.0433991127       13.3212692917
  O        18.9190652203        3.5931618751       14.6607946138
  O        29.9058884950       18.8314313071       12.0851745092
  O        29.7070441904       18.9038302278        4.0762919743
  O        31.4201260484       16.3447926685       12.0846156495
  O        31.3021424583       16.4116674460        4.0746039961
  O        32.2689506707       16.6310534937        9.5036071677
  O        29.7099942082       17.1454769466        9.2356507175
  O        30.1921791979       15.6786571841        6.4201739688
  O        31.3210696650       18.0231682014        6.9859121316
  O        30.8900540500       19.4921116417        9.6747374076
  O        28.7657117838       18.4596914749        6.6515397647
  O        39.4569818601       35.2440713449       11.9968396380
  O        19.1416692184        0.0046152509        3.9956069126
  O        41.9695714583       35.1726719207       12.0820060674
  O        21.6913382169       -0.0692197280        3.9010985675
  O        51.3651227679       18.6143200180       12.0002634534
  O        10.7510636751       18.7471626857        3.9100378027
  O        50.0801618049       16.4127770889       12.0865792728
  O         9.5249101244       16.4829981316        3.9963187713
 Zr         9.2976883354       16.0526673027       14.1774477152
 Zr        49.8371024803       16.0065568390        1.7514090425
 Zr        22.0735026777        0.0304168423       14.1837584254
 Zr        42.4611715636       35.1540022607        1.8061561276
 Zr        29.5985092548       19.0754706505       14.2517362150
 Zr        29.5620835155       19.1588606959        1.8881001281
 Zr        11.0387316761       19.0518363518        1.8328592861
 Zr        11.0447644868       19.1546947774       14.2456371747
 Zr        31.3478290576       16.1072852146        1.9034838946
 Zr        31.3938153046       16.0119397711       14.2689389530
 Zr        18.6014745915       -0.0006670629        1.7683980397
 Zr        18.5067566028       -0.0070774898       14.2086948280
 Zr        12.3029240801       16.3235717103       15.9851597074
 Zr        48.6178245822       18.8333037206        0.0153155425
 Zr        20.3155476746        2.4742144213       15.9853133028
 Zr        40.6439757108       32.6877776302       15.9731565638
 Zr        28.3464934799       16.3362850495        0.0823907431
 Zr        32.6119904452       18.8276206076        0.0589385948
  H        32.2082415531       18.4099732923        6.9004596290
  H        32.8173943094       15.6113351189        6.4873089921
  H        33.0862687972       15.4593255568        7.1737939146
  H        30.3021100374       20.8892988534        7.4745001663
  H        30.0977097027       20.6065671085        6.8024305970
