     576
 i =      246, E =     -4780.0366811075
  C        11.8588015132       14.0535125152       13.7364320077
  C        12.4562891016       12.8906224024       13.0181447637
  C        11.7045609361       12.1715349597       12.0766240016
  C        12.2809451443       11.1093470767       11.3842728284
  C        13.6215926195       10.7397237145       11.6118916782
  C        14.3548450235       11.4434388737       12.5851866222
  C        13.7819148502       12.5084062910       13.2766708498
  C        14.2610812321        9.6490145276       10.8385315163
  C        14.2563429054        9.6568982961        9.4168369540
  C        13.7431932786       10.7590441391        8.6629491540
  C        49.1269968406       21.2331942522       13.8745367653
  C        48.5502985400       22.4012088148       13.1474911018
  C        49.3002269132       23.0684053336       12.1663416841
  C        48.7332880148       24.1075671689       11.4331685600
  C        47.4028309893       24.5093756986       11.6619914399
  C        46.6719940861       23.8606615712       12.6756935629
  C        47.2344639813       22.8157416797       13.4050016709
  C        46.7725350792       25.5870390324       10.8647219030
  C        46.7613976021       25.5573370457        9.4429631317
  C        47.2613071693       24.4422514758        8.6994385675
  C        14.8602775434        8.5705824226        8.7035426099
  C        14.8919028876        8.5970970073       11.5151831380
  C        49.1133012684       21.2034693103        2.1504794217
  C        48.5279401219       22.3648658482        2.8776344637
  C        49.2670787695       23.0254400747        3.8707049357
  C        48.6907630394       24.0599898311        4.6021925826
  C        47.3604239872       24.4569096859        4.3637895564
  C        46.6400908543       23.8121967612        3.3400834945
  C        47.2136672356       22.7763061895        2.6083009417
  C        46.7219069420       25.5318402176        5.1548047977
  C        46.7335558829       25.5281742235        6.5765089948
  C        47.2489966557       24.4289539456        7.3328854282
  C        40.6350941600       17.1531934618        7.3255823605
  C        40.6551575829       17.1767620459        4.5166790949
  C        11.8831019311       14.0864991929        2.2905854438
  C        12.4724516313       12.9107852826        2.9948330323
  C        11.7149564248       12.1775550715        3.9209462744
  C        12.2815593738       11.0951068065        4.5893410030
  C        13.6204281519       10.7214828018        4.3575916551
  C        14.3584113030       11.4370870818        3.3968231718
  C        13.7929559396       12.5182542978        2.7241535962
  C        14.2540147872        9.6247081407        5.1279682594
  C        14.2525926835        9.6446400324        6.5498047125
  C        13.7427145367       10.7535689920        7.2969039715
  C        22.5126870502        3.2447073741       13.7484530066
  C        23.2287254481        4.3499793731       13.0504556675
  C        24.2240393749        4.0699474973       12.1024449188
  C        24.8518246769        5.1096096585       11.4212355057
  C        24.5003689175        6.4516305508       11.6680590194
  C        23.5338598772        6.7231628855       12.6535483861
  C        22.9011690224        5.6853080930       13.3329202096
  C        25.1052945514        7.5584305769       10.8919466009
  C        25.0697696460        7.5538372256        9.4706343131
  C        24.3631751672        6.5563752132        8.7261742232
  C        38.3026239616       31.9291380868       13.8440834109
  C        37.5730820361       30.8385999221       13.1352170414
  C        36.6148197616       31.1407171077       12.1556541484
  C        35.9985984418       30.1191792420       11.4380470863
  C        36.3254977293       28.7702555640       11.6786852173
  C        37.2536530467       28.4755980925       12.6950715785
  C        37.8742848660       29.4958820173       13.4111426733
  C        35.7249793435       27.6774631887       10.8809950938
  C        35.7599144054       27.6916603688        9.4596400116
  C        36.4675062411       28.6935225807        8.7231672536
  C        25.6899239708        8.6244179738        8.7494344864
  C        25.7086257070        8.6306074267       11.5614942002
  C        38.3293010372       31.9621476460        2.1615595473
  C        37.6091406507       30.8882212153        2.9040507385
  C        36.6821289083       31.1956219513        3.9116036752
  C        36.0739908235       30.1761003902        4.6414450402
  C        36.3785497481       28.8239145058        4.3868428245
  C        37.2831217348       28.5264892743        3.3492237673
  C        37.8935255322       29.5424884050        2.6209144388
  C        35.7720772471       27.7236653334        5.1705649601
  C        35.7836845090       27.7155614965        6.5925608376
  C        36.4784276826       28.7052685798        7.3566084282
  C        46.1355298635       26.6207826055        7.2866741032
  C        46.0880264344       26.5802591105        4.4787668831
  C        22.4597081521        3.2561400419        2.2635210058
  C        23.1503619713        4.3655702255        2.9881302005
  C        24.1486799455        4.0811906753        3.9334580401
  C        24.7731538941        5.1125735167        4.6306964031
  C        24.4198967070        6.4581178242        4.4049037436
  C        23.4446257260        6.7356241964        3.4282690800
  C        22.8151403319        5.7045273978        2.7318739353
  C        25.0486366162        7.5575603019        5.1787914465
  C        25.0411946994        7.5528775882        6.6016522556
  C        24.3477984252        6.5569120431        7.3595380690
  C        26.6277866076       17.8612051544       13.7716214811
  C        25.3199167137       17.9091256312       13.0467391777
  C        25.0604357644       18.9048723768       12.0920768624
  C        23.8456385236       18.9273412440       11.4090398153
  C        22.8537034091       17.9568581261       11.6580630829
  C        23.1097952910       16.9833724344       12.6420681266
  C        24.3263041077       16.9559463703       13.3227460406
  C        21.5794920511       17.9426368038       10.8949656211
  C        21.5781010907       17.9197433625        9.4723655135
  C        22.7832401465       17.7965363002        8.7111039650
  C        34.4396226355       17.1974989787       13.9142414579
  C        35.7301273484       17.1561332634       13.1645705414
  C        35.9408273463       16.1885852986       12.1699605710
  C        37.1208582901       16.1834061064       11.4316051347
  C        38.1232819210       17.1432236916       11.6709287048
  C        37.9153838005       18.0920358744       12.6895808106
  C        36.7315300932       18.1036889413       13.4234666916
  C        39.3789654181       17.1545347471       10.8875924804
  C        39.3760731339       17.1722471093        9.4664511481
  C        38.1697652100       17.2972547880        8.7077302028
  C        20.3311282894       17.9361248208        8.7643675762
  C        20.3547124308       17.9453235886       11.5776209241
  C        34.4743787315       17.2474588907        2.1856421815
  C        35.7781862519       17.1756413397        2.9088553648
  C        35.9954572624       16.1917177428        3.8848337047
  C        37.1811280991       16.1773721779        4.6140388093
  C        38.1775782146       17.1457955948        4.3848240572
  C        37.9670567442       18.1045430828        3.3767556667
  C        36.7788216181       18.1243399727        2.6514069288
  C        39.4240390635       17.1666108416        5.1804581403
  C        39.3990941705       17.1786855350        6.6010477423
  C        38.1805471425       17.2982221467        7.3411828980
  C        35.1533157594       26.6358917392        7.2957919847
  C        35.1808606355       26.6539879460        4.4866641041
  C        26.5672785896       17.8245328653        2.3280600599
  C        25.2514487429       17.8737885588        3.0326696133
  C        24.9878667181       18.8798345740        3.9744795644
  C        23.7711048633       18.9054796332        4.6502197529
  C        22.7882317006       17.9252778084        4.4071252902
  C        23.0455478865       16.9448036199        3.4318446465
  C        24.2633181301       16.9168563982        2.7547887339
  C        21.5257785463       17.9071548759        5.1819295594
  C        21.5508396471       17.9005140652        6.6034863790
  C        22.7698848102       17.7874167679        7.3448744050
  C        14.0463077448       17.8286179974        2.2944485722
  C        15.3497187040       17.8851991336        3.0209644029
  C        15.6052377270       18.8879978378        3.9693560285
  C        16.8135485052       18.9087420621        4.6632623911
  C        17.8006495347       17.9296385042        4.4309310798
  C        17.5496870131       16.9508720529        3.4507249248
  C        16.3408484379       16.9254974321        2.7583086611
  C        19.0697597839       17.9136064471        5.1996574037
  C        19.0694458773       17.9125908675        6.6221300136
  C        17.8630359620       17.8137678822        7.3842661694
  C        46.8070762978       17.2201290588        2.1644544989
  C        45.5191207987       17.1638777536        2.9125784819
  C        45.3130834918       16.1914643829        3.9030501944
  C        44.1328853248       16.1808156521        4.6413758703
  C        43.1304738247       17.1426405257        4.4097274820
  C        43.3339540822       18.0948624093        3.3930667849
  C        44.5148151144       18.1095809140        2.6561591897
  C        41.8779481757       17.1605617775        5.1973389569
  C        41.8826054042       17.1628449348        6.6188287966
  C        43.0909590285       17.2558238926        7.3787830217
  C        20.3167793068       17.9254019091        7.3294676106
  C        20.2932857871       17.8938615273        4.5164115117
  C        46.7860730233       17.2315579794       13.8848394222
  C        45.4820823213       17.1289045839       13.1708704549
  C        45.2611101335       16.1351124907       12.2056177842
  C        44.0727897220       16.1150300077       11.4797583400
  C        43.0769705758       17.0855937674       11.7029377057
  C        43.2875259884       18.0479078867       12.7078405925
  C        44.4770149291       18.0745917821       13.4283394393
  C        41.8321996530       17.1170261392       10.9049017755
  C        41.8594173672       17.1390594793        9.4843402472
  C        43.0800061550       17.2418017929        8.7452133118
  C        46.1533123736       26.6371842639        8.7212243592
  C        46.1626086873       26.6561858261       11.5308410134
  C        14.0462135922       17.8324089498       13.7040546215
  C        15.3678092895       17.9084411953       13.0149605199
  C        15.6407217984       18.9240423671       12.0863420232
  C        16.8701418498       18.9627091737       11.4323636127
  C        17.8545869261       17.9850081956       11.6809128251
  C        17.5887193942       16.9988275683       12.6482973444
  C        16.3612731035       16.9595538652       13.3058031584
  C        19.1216949602       17.9608645735       10.9114313311
  C        19.0964578711       17.9353383542        9.4899632934
  C        17.8762474404       17.8238446928        8.7502214989
  C        28.8083441898       14.0908828166        2.3976360743
  C        28.1930039410       12.9174475094        3.0842481261
  C        28.9120537255       12.1769325631        4.0340219921
  C        28.3091107395       11.1041474211        4.6859203959
  C        26.9728962258       10.7480094756        4.4122221296
  C        26.2760977545       11.4682222647        3.4255000705
  C        26.8768331426       12.5412006046        2.7719451594
  C        26.3009451503        9.6703247079        5.1738627535
  C        26.2878420858        9.6983842334        6.5948830447
  C        26.7906845532       10.8122234953        7.3397930627
  C        32.1776080495       21.2384164653        2.1478771952
  C        32.7751230748       22.4044683380        2.8667839720
  C        32.0278455718       23.0849976607        3.8403054653
  C        32.6007203169       24.1229313335        4.5692159084
  C        33.9365194492       24.5087546853        4.3448112293
  C        34.6661260515       23.8472022627        3.3393112952
  C        34.0955040169       22.8036546020        2.6125644662
  C        34.5671622558       25.5831518591        5.1454745848
  C        34.5609912943       25.5530766796        6.5669856567
  C        34.0531131962       24.4369814962        7.3043152031
  C        25.6795695694        8.6205736256        7.3148557984
  C        25.6645590496        8.6188026905        4.5015146599
  C        32.0997329529       21.2202244799       13.8744057497
  C        32.6925701918       22.3684561205       13.1252323700
  C        31.9605602530       23.0268058897       12.1252555696
  C        32.5421160013       24.0578529035       11.3905805765
  C        33.8695751256       24.4602009950       11.6373257460
  C        34.5845356428       23.8140089431       12.6637791873
  C        34.0076152765       22.7780377978       13.3938882640
  C        34.5112128518       25.5426206054       10.8555866887
  C        34.5318774657       25.5326493823        9.4338555986
  C        34.0385440387       24.4276367835        8.6708526235
  C        40.6230879894       17.1454739349        8.7594330866
  C        40.6009754881       17.1434028496       11.5689868869
  C        28.7530902638       14.0727299306       13.8101301151
  C        28.1426769004       12.9256177346       13.0709883517
  C        28.8752728858       12.2318011825       12.0961055562
  C        28.2931783779       11.1744563120       11.4001101322
  C        26.9623563952       10.7850042166       11.6535809313
  C        26.2469945029       11.4672174360       12.6552445192
  C        26.8275057856       12.5246873710       13.3528861141
  C        26.3170161843        9.6946611633       10.8829111326
  C        26.2974036145        9.7105882225        9.4612336901
  C        26.7932008068       10.8193501126        8.7056371392
  C        18.1354800306        3.1810754326        2.3222900302
  C        17.4062388375        4.2783149596        3.0209255101
  C        16.3903431071        4.0000081169        3.9482645323
  C        15.7426298940        5.0400081308        4.6117342137
  C        16.0947961904        6.3836970371        4.3722379046
  C        17.0844233419        6.6531968382        3.4087253127
  C        17.7334925887        5.6158187122        2.7437064948
  C        15.4704271344        7.4913740182        5.1352780742
  C        15.4855653616        7.4906095006        6.5569895841
  C        16.1870768668        6.4969662068        7.3101638567
  C        42.9459021307       31.8596071933        2.0779837715
  C        43.6462857773       30.7719247716        2.8219985876
  C        44.5917634045       31.0932485109        3.8081101412
  C        45.1974596631       30.0877018601        4.5557960410
  C        44.8711627474       28.7346228115        4.3408485488
  C        43.9453938292       28.4202940893        3.3275806044
  C        43.3365820906       29.4254329184        2.5795288926
  C        45.4887101728       27.6553132955        5.1440591646
  C        45.4928027676       27.6809003299        6.5657550967
  C        44.8057058618       28.6889374244        7.3123824772
  C        14.8565600382        8.5630948327        7.2693254631
  C        14.8752818572        8.5632074135        4.4566788117
  C        42.9464551279       31.9617019310       13.8038742828
  C        43.6917689292       30.8855457246       13.0904293881
  C        44.6563319972       31.1914158099       12.1180970942
  C        45.2778991198       30.1718463617       11.4003717518
  C        44.9541567603       28.8215342812       11.6380602343
  C        44.0207402528       28.5238459163       12.6488912591
  C        43.3924713370       29.5406377846       13.3610315212
  C        45.5631944402       27.7241305828       10.8528081555
  C        45.5333730540       27.7173604839        9.4315123968
  C        44.8269899802       28.7075589948        8.6785683649
  C        35.1399724863       26.6245970216        8.7305785327
  C        35.1187126777       26.6021251419       11.5403779434
  C        18.1485821311        3.2470207992       13.7014586825
  C        17.4300496646        4.3438452422       12.9921608820
  C        16.4146302344        4.0526166336       12.0688066158
  C        15.7663031162        5.0832654473       11.3934708250
  C        16.1212161924        6.4284726723       11.6159843257
  C        17.1128656213        6.7118264403       12.5729631796
  C        17.7605594036        5.6828911867       13.2526770685
  C        15.4906664176        7.5241555250       10.8435597890
  C        15.4964872943        7.5074790293        9.4224302549
  C        16.1932740753        6.5057664440        8.6757680165
  H        10.6723845350       12.4655547925       11.8997041392
  H        11.6946501990       10.5507464841       10.6578325947
  H        15.3919668199       11.1690629918       12.7667361070
  H        14.3515087144       13.0718223763       14.0118610871
  H        13.3762566233       11.6312036492        9.1962534148
  H        50.3228785291       22.7482456627       11.9814822329
  H        49.3197445651       24.6227315695       10.6754988915
  H        45.6425969669       24.1616422206       12.8590571397
  H        46.6635488471       22.2906633648       14.1672775913
  H        47.6298874275       23.5758988633        9.2411335725
  H        14.8723982597        8.5884246834       12.6034912416
  H        50.2870755009       22.7024864844        4.0657228333
  H        49.2691267091       24.5753717166        5.3657664948
  H        45.6107869199       24.1096534261        3.1508185823
  H        46.6529492208       22.2542945144        1.8365609923
  H        47.6078029109       23.5518352297        6.8020054905
  H        40.6621820458       17.1416680203        3.4289717245
  H        48.6871263600       14.0950250613       15.7949502596
  H        10.6814435791       12.4665185868        4.0982722552
  H        11.6898033867       10.5246306991        5.3019987103
  H        15.3939064822       11.1593686297        3.2109865443
  H        14.3653495984       13.0877042958        1.9957264434
  H        13.3760022191       11.6222221603        6.7582526853
  H        47.9302986813       14.2183999982        1.7160586418
  H        47.7801160559       14.3738965554       14.4902246498
  H        49.0847219326       18.5528283841        2.8727549411
  H        10.4163459401       14.1342568921        0.0037804310
  H        24.4830229942        3.0312672656       11.9094557023
  H        25.6232152820        4.8921377343       10.6856448436
  H        23.2554286565        7.7563085518       12.8507696339
  H        22.1324604147        5.8858385533       14.0752238806
  H        23.8027742273        5.7999719032        9.2678597622
  H        36.3780218027       32.1836247960       11.9585770753
  H        35.2555236193       30.3571238697       10.6800855901
  H        37.5135887670       27.4368425658       12.8881289653
  H        38.6168608275       29.2762017445       14.1745595783
  H        37.0327467710       29.4426675685        9.2699227686
  H        25.7503569714        8.6110867815       12.6490354856
  H        36.4591868087       32.2395779593        4.1201490923
  H        35.3497258859       30.4199318563        5.4155297876
  H        37.5299814739       27.4865416932        3.1460065962
  H        38.6145967347       29.3179830960        1.8387497529
  H        37.0530652083       29.4630555352        6.8318006605
  H        46.1095243833       26.5877481575        3.3907337095
  H        44.6683357563       35.1162581243       15.8088288180
  H        24.4262372408        3.0433331561        4.1031983814
  H        25.5511292989        4.8850371194        5.3563185617
  H        23.1603245868        7.7697987211        3.2448152441
  H        22.0463613078        5.9161175495        1.9922981501
  H        23.7749866752        5.8014656487        6.8295199698
  H        44.9539545451       34.3905663606        1.7004372708
  H        44.9017593980       34.2067752422       14.4856113075
  H        40.6661317125       33.2092889491        2.8582910121
  H        23.1502882302        1.9581943340        0.0106352176
  H        25.8235408405       19.6557858049       11.9007591016
  H        23.6496879527       19.7062069951       10.6751218846
  H        22.3564434153       16.2244522453       12.8434366597
  H        24.5346850896       16.1903815818       14.0665008042
  H        23.7241418048       17.6788333550        9.2407928939
  H        35.1649205389       15.4491003046       11.9872607473
  H        37.2847225708       15.4251064290       10.6690001319
  H        38.6819383321       18.8410166467       12.8776383679
  H        36.5532400074       18.8495853372       14.1946509762
  H        37.2311333076       17.4216313664        9.2400555140
  H        20.3621507287       17.9863764560       12.6654533695
  H        35.2162554392       15.4546824889        4.0652366620
  H        37.3507396619       15.4115639770        5.3678393145
  H        38.7312535560       18.8577104694        3.1961444173
  H        36.5925643158       18.8815086119        1.8933744762
  H        37.2502764140       17.4228004529        6.7944258077
  H        35.1516043616       26.6814993987        3.3990478755
  H        28.5031570589       21.0661014462       15.9607162476
  H        25.7492060213       19.6343272229        4.1588130283
  H        23.5664752708       19.6897759352        5.3758086589
  H        22.2946698434       16.1815235070        3.2380139177
  H        24.4785572232       16.1478872204        2.0166265415
  H        23.7006343133       17.6626629778        6.7995940046
  H        29.0260089345       21.7079290790        1.7519560119
  H        29.1854780098       21.7224557388       14.6296110646
  H        32.1031980453       18.5712951488        2.9875334851
  H        27.3756894761       19.0210734083        0.0741657882
  H        14.8465179020       19.6468438372        4.1471564844
  H        17.0081195288       19.6927519321        5.3919558247
  H        18.3013770180       16.1870425079        3.2623467098
  H        16.1357583839       16.1566832931        2.0171385598
  H        16.9202549650       17.6968859820        6.8577878530
  H        46.0946247128       15.4579989641        4.0869440654
  H        43.9720703654       15.4192584247        5.4012454694
  H        42.5672435850       18.8451156187        3.2112890954
  H        44.6899644789       18.8586881846        1.8876098563
  H        44.0332276933       17.3694649381        6.8503916381
  H        20.2863632153       17.9221251324        3.4282447350
  H        46.0363440281       15.3938762677       12.0252364995
  H        43.9036010629       15.3448163782       10.7304130869
  H        42.5229058128       18.8010056265       12.8865392170
  H        44.6624861326       18.8370058599       14.1808564607
  H        44.0139064711       17.3434432872        9.2904136537
  H        46.1996167826       26.6828098310       12.6182795838
  H        52.7412895006       21.0626900732        0.1998138585
  H        14.8794585860       19.6767778466       11.8936341349
  H        17.0806215319       19.7530620522       10.7150385068
  H        18.3401517865       16.2377485818       12.8483581973
  H        16.1408838551       16.1849922403       14.0363356349
  H        16.9433208542       17.7147694550        9.2950264907
  H        52.3226364855       21.6733735274       14.2891197993
  H        52.0133938640       21.7021984941        1.5007227129
  H        49.0680593927       18.6078736810       13.1988277592
  H        13.2479471833       19.0160974051       15.9723845585
  H        29.9414423349       12.4568189455        4.2464981751
  H        28.8680768711       10.5284958071        5.4205273786
  H        25.2438923115       11.2028427927        3.2062561748
  H        26.3366079414       13.1188002672        2.0258554916
  H        27.1499577205       11.6815685409        6.7974882339
  H        31.0013044229       22.7738839325        4.0188667867
  H        32.0163762339       24.6509250323        5.3196905088
  H        35.6997883013       24.1361271818        3.1602213230
  H        34.6640339124       22.2671612862        1.8563299533
  H        33.6989385999       23.5689671791        6.7555937774
  H        25.6955417108        8.5978709092        3.4135650161
  H        30.9380901405       22.7106172481       11.9319985512
  H        31.9673529927       24.5711946105       10.6227153987
  H        35.6121070004       24.1132017137       12.8600045976
  H        34.5641488717       22.2577782653       14.1700001853
  H        33.6726878162       23.5522522316        9.1997573265
  H        40.5922892486       17.1006393981       12.6564429882
  H        32.5039071104       14.1528393473        0.2627673679
  H        29.9017741224       12.5356081412       11.9034218404
  H        28.8690886511       10.6316635772       10.6536096211
  H        25.2172082768       11.1799859378       12.8577292407
  H        26.2718074116       13.0671029249       14.1140725636
  H        27.1533896474       11.6940878699        9.2392325853
  H        33.3117017302       14.2312166473       14.4678878009
  H        33.4089125174       14.4155727929        1.6014220422
  H        32.0965865322       18.5016304809       13.1642226567
  H        30.2230453068       14.1930451118        0.0772224663
  H        16.1180970288        2.9635215632        4.1344910950
  H        14.9530213784        4.8206825564        5.3272344634
  H        17.3671276995        7.6860380982        3.2158295531
  H        18.5157407973        5.8184564377        2.0160808417
  H        16.7537018602        5.7396832452        6.7766549730
  H        44.8279969419       32.1403421915        3.9823138820
  H        45.9372967413       30.3414918319        5.3117593967
  H        43.6828105960       27.3782098753        3.1573783746
  H        42.6000629569       29.1900990304        1.8147687587
  H        44.2303944590       29.4367272399        6.7740631391
  H        14.8516826081        8.5465425015        3.3684542718
  H        44.8998486841       32.2341014964       11.9266184914
  H        46.0247925504       30.4130942328       10.6471271353
  H        43.7638764538       27.4841092907       12.8405438053
  H        42.6460302837       29.3178608276       14.1195420572
  H        44.2685416291       29.4704830696        9.2131631590
  H        35.0729118783       26.6152839384       12.6277162315
  H        36.6052230296       35.1340858853        0.1857606811
  H        16.1433669216        3.0130560850       11.8992680212
  H        14.9738260845        4.8564667636       10.6835407914
  H        17.3966806501        7.7472555947       12.7495962062
  H        18.5437135175        5.8933443993       13.9771419981
  H        16.7647239477        5.7555454562        9.2142134273
  H        36.2787699653       34.4823742471       14.2680332887
  H        36.3812300582       34.2090625083        1.5047335717
  H        40.5803584176       33.2027182752       13.1483265640
  H        17.4709280110        1.9478088232       15.9690179966
  H        28.9608898025       19.3527758128        4.5177410753
  H        29.5415455854       19.4436504609       11.5219617354
  H        32.0633714495       15.9005759490       11.5964161528
  H        31.1358131947       15.5744226600        4.5386236969
  H        28.0277987378       17.8842785869        6.8380629134
  H        29.4175618141       15.2432316908        6.5969525954
  H        31.6303804693       19.7045339429        9.3483937015
  H        33.0142582112       17.4934737832        9.3965422323
  H        28.7432441182       16.8074999904        8.6508149467
  H        18.8535446088        0.8690383412        4.3403640469
  H        40.5280407492       35.2290891095       11.9469317211
  H        42.3245380342       34.4194428082       11.5850739229
  H        22.0875929690        0.6924273714        4.3565193010
  H        11.5967851460       18.7131197972        4.3877454656
  H        52.2649315733       18.4312487931       11.6719890081
  H        49.2551548659       16.4769706380       11.5793956021
  H        10.1510315801       15.7981968044        4.2975168475
  H        50.8501875188       17.6924560714       11.9491116986
  H        10.0465413595       17.3945639788        4.0570347111
  H        20.2148873004        0.0022929587        4.0470485612
  H        39.1837949069       36.1245705748       11.6814644873
 Ni        31.1138368467       17.8652447086       10.8343560408
 Ni        31.1553154557       16.4764247010        8.0744620455
 Ni        29.6763799466       18.9829431926        8.2406941308
 Ni        30.1848350304       17.5205100742        5.3334456522
  O        10.6499312136       14.3651172559       13.4807508646
  O        12.6131638755       14.6575334135       14.5787895025
  O        49.1481442204       16.8458382379       15.9846196501
  O        50.3503605990       20.9357564880       13.6428932945
  O        48.3486092547       20.5933670012       14.6607724919
  O        11.0518744003       17.0537567143       14.4956056204
  O        50.3210552336       20.8816677354        2.4119597844
  O        48.3467844178       20.5867950121        1.3322639388
  O        49.5438768468       18.2484039094        2.0733287541
  O        12.3593206420       18.6246599917        0.0047846225
  O        48.6932657020       14.1485646448       14.7461942544
  O         8.2099316987       14.2103760392        1.3276146575
  O        10.7354316555       14.5067371814        2.6694214492
  O        12.5718552902       14.5828443457        1.3335856343
  O        22.8446076588        2.0433159353       13.4820770098
  O        21.6055841897        3.5922859915       14.5845259007
  O        42.0582583707       34.1375048302       15.9738582596
  O        37.9817042031       33.1372614107       13.5672106118
  O        39.2182123635       31.5760150978       14.6616247133
  O        20.3084068610        1.0395785632       14.4969815476
  O        38.0246230500       33.1856711500        2.4203528744
  O        39.2192855601       31.5838583150        1.3313864118
  O        40.6523179171       33.7694539640        2.0653191147
  O        18.2556314432        1.3766692751        0.0018417460
  O        44.6222371199       35.1005448537       14.7536526917
  O        24.2054076964        0.0000336617        1.3258818742
  O        22.7529051190        2.0580656930        2.5890730224
  O        21.6242645972        3.5958943269        1.3474286100
  O        27.5033133671       18.7540667572       13.4889468574
  O        26.7647978946       16.9335023880       14.6428707449
  O        30.6357648473       19.3497956243        0.0725958367
  O        33.5903276267       16.2739409138       13.6627425905
  O        34.2746521769       18.1678297823       14.7310053440
  O        29.5770088757       17.0560843325       14.5706553020
  O        33.6170463722       16.3300835360        2.4194688515
  O        34.3041942623       18.2473659078        1.4105527478
  O        31.6496297872       18.3145367364        2.1679936185
  O        30.3232136592       15.1588638226        0.0942188325
  O        28.5555507921       21.0272510652       14.8934425339
  O        28.5133361927       20.9522488149        1.4174417508
  O        27.4540035491       18.6770854770        2.6651607015
  O        26.6922915143       16.9258579472        1.4200703792
  O        13.1483755135       18.6929896386        2.5924874244
  O        13.9193204768       16.9163109397        1.4102306036
  O        50.5966080950       19.3502947512        0.0254799311
  O        47.6837467886       16.3269620365        2.4223994597
  O        46.9525428113       18.1760765876        1.3291153069
  O        11.0700017176       17.0154331944        1.4947062372
  O        47.6757893450       16.3356248558       13.6477850335
  O        46.9283098104       18.2359210643       14.6601483103
  O        49.5689208479       18.3176803344       13.9771539866
  O        10.3187373898       15.1000805923        0.0022264700
  O        52.6707782120       21.0278761501        1.2469305473
  O        12.1468661419       20.8912354547       14.6681428679
  O        13.1082133741       18.6136352291       13.3205495268
  O        13.9573608703       16.9871421642       14.6602199772
  O        29.9923630110       14.4408221416        2.7389461287
  O        28.0893331940       14.6529765557        1.5012161297
  O        32.1364589928       16.8517350140        0.0882443067
  O        30.9641465949       20.9512689350        2.4135467387
  O        32.9448971724       20.6004266772        1.3417919370
  O        29.5678545794       17.0723380009        1.5843223314
  O        30.8682177368       20.9403176426       13.6576425021
  O        32.8749671509       20.5858106171       14.6627516013
  O        31.6858333893       18.2556511119       14.0110645366
  O        28.2640650139       18.6299645573        0.0819076230
  O        32.4920326136       14.2145210840        1.3372938936
  O        32.4051797193       14.2163881244       14.8179017942
  O        29.9255856695       14.4446085764       13.4840585686
  O        28.0421418271       14.5883878511       14.7454912054
  O        17.8892458532        1.9666652216        2.6679219641
  O        18.9562409322        3.5271648647        1.4130878063
  O        39.1685929406       34.1388408176        0.0022615066
  O        43.2802558566       33.0589771346        2.3368332379
  O        42.0345612247       31.5064468987        1.2467166956
  O        20.3177568139        1.0368611999        1.4852099267
  O        43.2760954513       33.1826107731       13.5697441768
  O        42.0052820074       31.5841202532       14.5778783939
  O        40.5790086361       33.7750479588       13.9306895453
  O        22.3673757481        1.3846696692        0.0030380566
  O        36.6727849918       35.0997884400        1.2383883306
  O        16.4455911879        0.0642735481       14.6631650180
  O        17.9365233111        2.0433458293       13.3212868935
  O        18.9190292120        3.5931627826       14.6607739761
  O        29.9461817833       18.7568930889       12.0809319642
  O        29.7403950540       18.9739710223        4.0701063383
  O        31.3839606628       16.4173371331       12.0667648784
  O        31.3033925263       16.4113951634        4.0612047807
  O        32.2683327832       16.9239737123        9.6499481273
  O        29.5262344284       17.2826333388        8.9861235892
  O        30.2379496238       15.7506163457        6.4918313577
  O        31.6020509230       17.9486323922        6.7464096066
  O        30.7970680500       19.3683967096        9.7242514723
  O        28.7769273531       18.4762139818        6.6561562970
  O        39.4568316402       35.2438527164       11.9968826402
  O        19.1414509304        0.0045636149        3.9956364139
  O        41.9695952681       35.1728281831       12.0820302798
  O        21.6913257807       -0.0691907908        3.9010499287
  O        51.3651310140       18.6143277737       12.0002534847
  O        10.7510383029       18.7471855936        3.9100734476
  O        50.0795952184       16.4127656531       12.0866187342
  O         9.5249244051       16.4829858565        3.9963048470
 Zr         9.2975802420       16.0526827234       14.1774481997
 Zr        49.8370677560       16.0065667243        1.7514103629
 Zr        22.0734560582        0.0303944097       14.1837872351
 Zr        42.4611189645       35.1539087853        1.8061078264
 Zr        29.6069262443       19.0740135777       14.2684696760
 Zr        29.5628605134       19.1622877723        1.8899438189
 Zr        11.0386164522       19.0518264549        1.8328665119
 Zr        11.0446576299       19.1546913257       14.2456997763
 Zr        31.3462121938       16.1034489711        1.9076227360
 Zr        31.3931123143       16.0223655992       14.2790489197
 Zr        18.6013882078       -0.0008787881        1.7683664002
 Zr        18.5066468615       -0.0073986843       14.2086849337
 Zr        12.3028806458       16.3235702154       15.9851331204
 Zr        48.6176600943       18.8333405413        0.0152631878
 Zr        20.3154725924        2.4740125984       15.9852532909
 Zr        40.6437721521       32.6875521770       15.9730771311
 Zr        28.3443785553       16.3339166775        0.0846149490
 Zr        32.6188638242       18.8313681132        0.0593961573
  H        32.4561311801       17.7724309938        6.3120680868
  H        32.5523206957       15.1756146025        7.1202142980
  H        32.9647710821       15.3122078631        7.7422520644
  H        30.1229036992       20.3197823899        7.4540594710
  H        29.4614126462       20.5425186425        7.9256867084
