     574
 i =      126, E =     -4778.9146643845
  C        11.8586151000       14.0536084355       13.7364738504
  C        12.4561460076       12.8905978740       13.0181876836
  C        11.7045531767       12.1718587900       12.0763174824
  C        12.2809330224       11.1096532155       11.3839547436
  C        13.6214151511       10.7396674162       11.6119059417
  C        14.3544643965       11.4430327814       12.5856111297
  C        13.7815688838       12.5080070218       13.2771211807
  C        14.2610108258        9.6490402357       10.8385107967
  C        14.2564597803        9.6570173824        9.4168076726
  C        13.7433261680       10.7591500205        8.6628894197
  C        49.1265388026       21.2333106493       13.8746591042
  C        48.5497158664       22.4011245512       13.1475316194
  C        49.2998733275       23.0686363925       12.1667483169
  C        48.7329331013       24.1077292406       11.4335132713
  C        47.4022870404       24.5091647781       11.6619076805
  C        46.6711668537       23.8600406513       12.6751366767
  C        47.2336242731       22.8151723670       13.4045436225
  C        46.7721440946       25.5869021069       10.8646093533
  C        46.7613603468       25.5573908061        9.4428446290
  C        47.2613307928       24.4423079893        8.6993623632
  C        14.8604534485        8.5707043211        8.7035485163
  C        14.8917104083        8.5970360005       11.5151530849
  C        49.1131073475       21.2034321281        2.1504515432
  C        48.5277423747       22.3647517129        2.8775880088
  C        49.2670666799       23.0256490629        3.8703221745
  C        48.6907258549       24.0601935574        4.6017722183
  C        47.3602241553       24.4567898666        4.3637019172
  C        46.6396862596       23.8116601002        3.3404104059
  C        47.2132440580       22.7757518082        2.6086303110
  C        46.7218260293       25.5317947152        5.1547213144
  C        46.7336799527       25.5282342196        6.5764233569
  C        47.2491155799       24.4290246719        7.3328095307
  C        40.6200696575       17.0830914172        7.3157420873
  C        40.6306864903       17.1024307566        4.5058660396
  C        11.8828690207       14.0865720945        2.2905686325
  C        12.4721846791       12.9106593312        2.9947475741
  C        11.7147603066       12.1776690192        3.9210860585
  C        12.2813356589       11.0952171776        4.5895339129
  C        13.6200547322       10.7212755647        4.3574908339
  C        14.3578997695       11.4365857708        3.3963961296
  C        13.7924839772       12.5177539180        2.7236876001
  C        14.2537149869        9.6245757688        5.1279298263
  C        14.2526082952        9.6446395573        6.5497722994
  C        13.7427723435       10.7536089805        7.2968431639
  C        22.5111526202        3.2447448889       13.7468836090
  C        23.2239610070        4.3500892803       13.0445771158
  C        24.2211128481        4.0695855338       12.0986919833
  C        24.8474500236        5.1085414494       11.4149111822
  C        24.4922981698        6.4505224807       11.6565614486
  C        23.5226557418        6.7226262626       12.6389439729
  C        22.8918712632        5.6854514181       13.3212544190
  C        25.0989252906        7.5568283381       10.8807530654
  C        25.0752075094        7.5491916020        9.4589780422
  C        24.3766986197        6.5487062866        8.7109680002
  C        38.3014913207       31.9291781671       13.8444807223
  C        37.5694270484       30.8403726231       13.1364756832
  C        36.6060105434       31.1453964787       12.1627036499
  C        35.9859817046       30.1261407873       11.4453846570
  C        36.3149204061       28.7765876714       11.6795061297
  C        37.2483924395       28.4789358966       12.6902247630
  C        37.8721486852       29.4968901039       13.4068822797
  C        35.7125369933       27.6856928379       10.8807834591
  C        35.7430864504       27.7031102506        9.4593217132
  C        36.4440369489       28.7095865181        8.7229427206
  C        25.6988552713        8.6196382174        8.7402346258
  C        25.6941448703        8.6324001745       11.5523599467
  C        38.3286958936       31.9626198699        2.1611585578
  C        37.6062858192       30.8906353919        2.9029295734
  C        36.6748972530       31.2009881367        3.9056305913
  C        36.0632728909       30.1836492209        4.6352663796
  C        36.3692439659       28.8308412605        4.3858974749
  C        37.2784672334       28.5304796117        3.3531269479
  C        37.8919015149       29.5442387390        2.6244417370
  C        35.7606526325       27.7324263545        5.1699840568
  C        35.7674172312       27.7273088852        6.5920248665
  C        36.4552977434       28.7215003829        7.3563759929
  C        46.1357005910       26.6208935355        7.2865441052
  C        46.0877578180       26.5800703909        4.4786494830
  C        22.4623990820        3.2559089943        2.2617677714
  C        23.1602467357        4.3647801956        2.9818473103
  C        24.1671103257        4.0786787705        3.9175665805
  C        24.7983542235        5.1087322841        4.6109663543
  C        24.4427883451        6.4546735047        4.3916771172
  C        23.4592272753        6.7341233147        3.4240278630
  C        22.8236373773        5.7043289334        2.7308322134
  C        25.0739985005        7.5525436829        5.1666197506
  C        25.0634170931        7.5461201263        6.5894787635
  C        24.3691887820        6.5483177069        7.3442531158
  C        26.6160601866       17.8601440002       13.7782949958
  C        25.3090185241       17.9102708914       13.0557206453
  C        25.0507624917       18.9079460872       12.1021121372
  C        23.8382850465       18.9285989693       11.4153832502
  C        22.8475190122       17.9561238877       11.6607055691
  C        23.1017412234       16.9820651948       12.6449362263
  C        24.3161132724       16.9552057753       13.3288391584
  C        21.5752646513       17.9418229499       10.8950374541
  C        21.5764841147       17.9208853609        9.4724880192
  C        22.7827762295       17.7987109555        8.7129502777
  C        34.4368447804       17.1960649666       13.9124910240
  C        35.7297193507       17.1424420956       13.1691115048
  C        35.9319283361       16.1712945109       12.1761166801
  C        37.1123090214       16.1542633009       11.4386817720
  C        38.1226382854       17.1070920146       11.6735691658
  C        37.9230902554       18.0587351764       12.6918228820
  C        36.7399304731       18.0811516161       13.4269241190
  C        39.3756129775       17.1115041577       10.8842773902
  C        39.3679512833       17.1161548605        9.4621580810
  C        38.1590696401       17.2368341004        8.7066611727
  C        20.3302942881       17.9375663994        8.7630246050
  C        20.3499969556       17.9430506765       11.5764244282
  C        34.4388998973       17.2384570041        2.1943659926
  C        35.7401709114       17.1376137176        2.9168940409
  C        35.9490098344       16.1528425141        3.8939002689
  C        37.1392926553       16.1215850810        4.6164673422
  C        38.1506394801       17.0737957326        4.3814924341
  C        37.9485366723       18.0311547841        3.3698892566
  C        36.7574088425       18.0674302934        2.6509733261
  C        39.4007097735       17.0880073609        5.1738916076
  C        39.3808076477       17.1037826511        6.5953263087
  C        38.1653688562       17.2287061016        7.3398994222
  C        35.1408291079       26.6454272149        7.2952192581
  C        35.1748566263       26.6598892056        4.4860081180
  C        26.5737952680       17.8276872289        2.3306785627
  C        25.2590910607       17.8716863114        3.0388512236
  C        24.9902832064       18.8818020921        3.9747851490
  C        23.7727882443       18.9071827714        4.6493376970
  C        22.7933425393       17.9225096392        4.4102103962
  C        23.0560009015       16.9368556494        3.4417526760
  C        24.2747827768       16.9093780332        2.7662685476
  C        21.5290401565       17.9058917091        5.1823759159
  C        21.5525340951       17.9011030036        6.6038571631
  C        22.7707804082       17.7892267068        7.3466893816
  C        14.0466697060       17.8288675900        2.2938778508
  C        15.3513762018       17.8859862630        3.0192681976
  C        15.6087078342       18.8901625060        3.9656539008
  C        16.8177754524       18.9112281819        4.6584872448
  C        17.8038902210       17.9308443502        4.4272662931
  C        17.5512871984       16.9507579076        3.4488182496
  C        16.3416867084       16.9252082717        2.7574931120
  C        19.0728712233       17.9142611030        5.1966813375
  C        19.0711333564       17.9141006909        6.6192371348
  C        17.8637354047       17.8165326071        7.3800559677
  C        46.8022351360       17.2162356425        2.1622779212
  C        45.5090413086       17.1459618231        2.9029300514
  C        45.3039818316       16.1615667988        3.8823509658
  C        44.1201170090       16.1333421186        4.6148570311
  C        43.1099700145       17.0893811207        4.3911701778
  C        43.3117467399       18.0526315826        3.3839462431
  C        44.4964851390       18.0847124583        2.6519970611
  C        41.8567696440       17.0929663091        5.1814221773
  C        41.8653384092       17.0945982280        6.6037728429
  C        43.0757328639       17.1918570193        7.3599720928
  C        20.3175970662       17.9268009915        7.3281760400
  C        20.2974435178       17.8926572030        4.5150479785
  C        46.7846958828       17.2318474980       13.8816856998
  C        45.4831200178       17.1260574535       13.1624919654
  C        45.2660823413       16.1255901912       12.2026295481
  C        44.0788327653       16.0959518226       11.4749527675
  C        43.0781741665       17.0639678934       11.6889222954
  C        43.2863714260       18.0353170641       12.6861791499
  C        44.4745488181       18.0710948619       13.4094027117
  C        41.8305558253       17.0814067294       10.8930957273
  C        41.8520858718       17.0875066517        9.4716943693
  C        43.0694655765       17.1854611769        8.7267953394
  C        46.1534331118       26.6373122791        8.7210888574
  C        46.1620977211       26.6559618272       11.5307379848
  C        14.0449776200       17.8318033094       13.7037652465
  C        15.3657732477       17.9067537199       13.0128979834
  C        15.6387396235       18.9237877379       12.0860152386
  C        16.8675548999       18.9623140283       11.4309689592
  C        17.8507232960       17.9829655290       11.6772655545
  C        17.5845286921       16.9946209677       12.6422411825
  C        16.3577214400       16.9556109355       13.3007853915
  C        19.1180980723       17.9598515981       10.9086339133
  C        19.0947866670       17.9363029864        9.4871833789
  C        17.8753239766       17.8263435798        8.7460519403
  C        28.7939574739       14.1173433396        2.4028127531
  C        28.1909221570       12.9406186909        3.0935418170
  C        28.9200917700       12.1921773503        4.0291039070
  C        28.3263198650       11.1105622031        4.6756410091
  C        26.9887464293       10.7528594204        4.4102425628
  C        26.2812152952       11.4817982963        3.4377287116
  C        26.8728886451       12.5630444164        2.7899324116
  C        26.3231865876        9.6673136459        5.1674720796
  C        26.3075039604        9.6929946360        6.5882796116
  C        26.8068427214       10.8070969148        7.3347313678
  C        32.1811162043       21.2401756037        2.1494436551
  C        32.7766053629       22.4065531553        2.8671276718
  C        32.0276013967       23.0888241047        3.8382350109
  C        32.5990436076       24.1271913381        4.5671420700
  C        33.9352534823       24.5124331952        4.3445818954
  C        34.6665961803       23.8498348413        3.3411267020
  C        34.0975478897       22.8052013816        2.6148676631
  C        34.5629662111       25.5884212058        5.1450396574
  C        34.5550965318       25.5589694947        6.5665032975
  C        34.0556207993       24.4387690739        7.3030788670
  C        25.6973718984        8.6143905614        7.3056106074
  C        25.6896022765        8.6159017257        4.4920641098
  C        32.1201057074       21.1939965089       13.8412233506
  C        32.7052491085       22.3524420466       13.1050620086
  C        31.9735409801       23.0039159644       12.1003949468
  C        32.5480371009       24.0451752772       11.3757975826
  C        33.8689593180       24.4612931101       11.6344215606
  C        34.5823565366       23.8229017069       12.6667913483
  C        34.0112859753       22.7791182000       13.3899750666
  C        34.5062265411       25.5467964816       10.8544559306
  C        34.5262420940       25.5374209396        9.4325067573
  C        34.0419702216       24.4281649621        8.6696579269
  C        40.6129681195       17.0845078601        8.7506496014
  C        40.6009387556       17.1105020175       11.5607037992
  C        28.7200325904       14.0962101487       13.7799549299
  C        28.1157407890       12.9433147635       13.0495399250
  C        28.8535114214       12.2434422133       12.0824563342
  C        28.2766299865       11.1785546477       11.3946870774
  C        26.9458412962       10.7886119871       11.6467194440
  C        26.2262041983       11.4749597636       12.6428400053
  C        26.8020183506       12.5386651659       13.3345051660
  C        26.3064063024        9.6954485445       10.8759054290
  C        26.2993451725        9.7082427510        9.4540529559
  C        26.8003816899       10.8159200165        8.7003474026
  C        18.1354102920        3.1809419166        2.3222325133
  C        17.4060252676        4.2782166120        3.0207969525
  C        16.3906307057        3.9998140158        3.9486491304
  C        15.7428898594        5.0397732132        4.6121731934
  C        16.0944590241        6.3835288921        4.3721860731
  C        17.0834432306        6.6530791234        3.4080167277
  C        17.7325458839        5.6157580267        2.7429410931
  C        15.4701898312        7.4912412997        5.1352468361
  C        15.4856337634        7.4906562071        6.5569609627
  C        16.1872817076        6.4971137276        7.3101441622
  C        42.9458700792       31.8594480091        2.0779717801
  C        43.6461958469       30.7718205941        2.8219212993
  C        44.5919011383       31.0931226713        3.8078426985
  C        45.1975972696       30.0875599454        4.5554745465
  C        44.8710075368       28.7345087141        4.3407383153
  C        43.9449771078       28.4201875291        3.3277093645
  C        43.3361717163       29.4253447212        2.5796820373
  C        45.4886463172       27.6552432393        5.1439258967
  C        45.4929497751       27.6809827608        6.5656143293
  C        44.8058631730       28.6890394845        7.3122230080
  C        14.8566803426        8.5631620400        7.2693213032
  C        14.8748091038        8.5629605013        4.4566596008
  C        42.9464990430       31.9615110754       13.8038801212
  C        43.6915804317       30.8854351127       13.0902889240
  C        44.6564004273       31.1913214648       12.1181899461
  C        45.2778743358       30.1717182940       11.4004621023
  C        44.9538712698       28.8214107144       11.6379063715
  C        44.0201268218       28.5237581272       12.6484463224
  C        43.3919120694       29.5405392450       13.3606386931
  C        45.5629570009       27.7240339555       10.8526679805
  C        45.5334251429       27.7174498299        9.4313697694
  C        44.8271311235       28.7076894089        8.6784064122
  C        35.1272491461       26.6337788605        8.7299472594
  C        35.1110395792       26.6075328320       11.5396052529
  C        18.1485834910        3.2469169743       13.7015371062
  C        17.4299668537        4.3438183377       12.9922765321
  C        16.4149195531        4.0525590019       12.0685345013
  C        15.7666194747        5.0831941834       11.3931299904
  C        16.1211135147        6.4284416783       11.6160341366
  C        17.1122932562        6.7118156013       12.5735020532
  C        17.7599501386        5.6828915073       13.2532722636
  C        15.4906617831        7.5241605206       10.8435801511
  C        15.4966761629        7.5076070340        9.4224439599
  C        16.1935075035        6.5059501102        8.6757487097
  H        10.6724879777       12.4661406809       11.8991542659
  H        11.6946899921       10.5512983747       10.6572804658
  H        15.3914140799       11.1682587630       12.7675336447
  H        14.3509183692       13.0710944111       14.0127500741
  H        13.3762598010       11.6312502195        9.1962016956
  H        50.3226544422       22.7487420213       11.9821806844
  H        49.3194684926       24.6231359847       10.6760728705
  H        45.6415369572       24.1605209029       12.8580241634
  H        46.6624365137       22.2897296331       14.1663701202
  H        47.6297122867       23.5758647184        9.2410491063
  H        14.8718879736        8.5882045995       12.6034562012
  H        50.2871697404       22.7029206957        4.0651175148
  H        49.2691453061       24.5757735548        5.3651691739
  H        45.6101641850       24.1086390907        3.1515669328
  H        46.6522528632       22.2533951436        1.8373198157
  H        47.6077819120       23.5518504048        6.8019259358
  H        40.6340280365       17.0689780270        3.4180134363
  H        48.6870157124       14.0949966406       15.7948817035
  H        10.6813564474       12.4669015997        4.0986319006
  H        11.6895836264       10.5249670263        5.3023799532
  H        15.3932384470       11.1584964033        3.2102545274
  H        14.3647075725       13.0869571014        1.9949353766
  H        13.3758961950       11.6221950545        6.7581948311
  H        47.9300066302       14.2187791437        1.7157259513
  H        47.7799659862       14.3738096351       14.4901317047
  H        49.0824445030       18.5518599682        2.8720824926
  H        10.4157395414       14.1344077474        0.0038527861
  H        24.4833285691        3.0309355230       11.9098977846
  H        25.6212838878        4.8902990556       10.6821197400
  H        23.2404993582        7.7555799958       12.8318606519
  H        22.1213660292        5.8864279794       14.0615961304
  H        23.8152832170        5.7910626123        9.2499132798
  H        36.3680517421       32.1888305769       11.9700285157
  H        35.2386932329       30.3662488640       10.6922631215
  H        37.5098025127       27.4395991147       12.8781134351
  H        38.6184022334       29.2747658043       14.1660026726
  H        37.0052204450       29.4618332831        9.2695905039
  H        25.7269358327        8.6154869178       12.6402581509
  H        36.4512129102       32.2455050006        4.1103861908
  H        35.3352610690       30.4294472489        5.4051939015
  H        37.5263482849       27.4899301481        3.1542970509
  H        38.6162055253       29.3175452566        1.8459049338
  H        37.0262747713       29.4823927308        6.8321448854
  H        46.1089407369       26.5873209216        3.3906084520
  H        44.6681354438       35.1160652677       15.8088198862
  H        24.4455278466        3.0403862253        4.0833280440
  H        25.5821955228        4.8794329255        5.3297355796
  H        23.1727855091        7.7685762687        3.2455228399
  H        22.0484513561        5.9175716742        1.9984093613
  H        23.8015303381        5.7908997284        6.8115240219
  H        44.9532467220       34.3898548770        1.6999468189
  H        44.9011404646       34.2065802809       14.4854815907
  H        40.6656330682       33.2087567961        2.8580094029
  H        23.1506064806        1.9576398756        0.0097797097
  H        25.8106601908       19.6632594381       11.9142370623
  H        23.6433052406       19.7081640999       10.6820021729
  H        22.3484323483       16.2224145560       12.8435885966
  H        24.5232482971       16.1891877434       14.0725204178
  H        23.7237333113       17.6812903178        9.2427005499
  H        35.1455471708       15.4433558202       11.9912817612
  H        37.2680996924       15.3939633620       10.6765037535
  H        38.6944811083       18.8033637780       12.8771532793
  H        36.5693122631       18.8309558717       14.1960178499
  H        37.2211908418       17.3706280993        9.2385123523
  H        20.3558329368       17.9825238220       12.6643104206
  H        35.1601143438       15.4285459523        4.0830059433
  H        37.2998272768       15.3554190450        5.3718311946
  H        38.7222911634       18.7727131105        3.1822755865
  H        36.5813750402       18.8252662640        1.8914286116
  H        37.2320804383       17.3556393805        6.7987235456
  H        35.1486856172       26.6855857072        3.3982703528
  H        28.5110521639       21.0866878213       15.8859644468
  H        25.7479113659       19.6416296387        4.1522146939
  H        23.5637645426       19.6951455946        5.3697316248
  H        22.3079654683       16.1699462451        3.2512469802
  H        24.4932438722       16.1373120357        2.0323263902
  H        23.7024471375       17.6644331189        6.8030208640
  H        29.0139948467       21.7222021546        1.7431762412
  H        29.1585516045       21.7473703431       14.5478207484
  H        32.0729371603       18.5653933392        3.0036770641
  H        27.4091841171       19.0830278248        0.0887008363
  H        14.8506923221       19.6498490346        4.1429712981
  H        17.0133630574       19.6963501779        5.3857190416
  H        18.3019450256       16.1857267720        3.2611824221
  H        16.1353016002       16.1552606732        2.0178448722
  H        16.9214421330       17.7005876034        6.8524964408
  H        46.0898620552       15.4320720917        4.0634426215
  H        43.9635195765       15.3625398123        5.3663095997
  H        42.5404815130       18.7991129831        3.2056579960
  H        44.6671427799       18.8433710744        1.8916875339
  H        44.0164650297       17.3037853358        6.8285562992
  H        20.2920008257       17.9194956963        3.4268330852
  H        46.0432357194       15.3848090932       12.0288188355
  H        43.9137956022       15.3185735785       10.7320872151
  H        42.5194940616       18.7877022979       12.8582586425
  H        44.6550782690       18.8397725647       14.1568417836
  H        44.0055883821       17.2914259134        9.2673955459
  H        46.1986759423       26.6823598123       12.6181951417
  H        52.7410383922       21.0625901392        0.1997587919
  H        14.8780166460       19.6776887263       11.8957513471
  H        17.0785982601       19.7539240843       10.7151973414
  H        18.3351609557       16.2320847916       12.8396955689
  H        16.1365607415       16.1798811448       14.0298484063
  H        16.9417042112       17.7179890040        9.2898356100
  H        52.3220384948       21.6731852578       14.2893774372
  H        52.0130000251       21.7018976241        1.5007573746
  H        49.0669489677       18.6077623581       13.1991774255
  H        13.2472459172       19.0165320365       15.9722243246
  H        29.9520742043       12.4693828517        4.2320505133
  H        28.8934706745       10.5288717179        5.3991874183
  H        25.2477466526       11.2159180702        3.2252031872
  H        26.3244522117       13.1458984614        2.0540247507
  H        27.1691981395       11.6765452711        6.7946770225
  H        31.0004375550       22.7789915157        4.0144513517
  H        32.0142320100       24.6559475616        5.3166815002
  H        35.7006534346       24.1383149867        3.1637433925
  H        34.6679041234       22.2676953040        1.8607848319
  H        33.7113902213       23.5660308350        6.7554036413
  H        25.7204123954        8.5977477706        3.4040450302
  H        30.9580663987       22.6728054051       11.8952042439
  H        31.9741691896       24.5535970419       10.6041376903
  H        35.6049762329       24.1328519084       12.8717345493
  H        34.5670134598       22.2642871670       14.1702043206
  H        33.6879100828       23.5464270656        9.1963823312
  H        40.5961975686       17.0792659377       12.6485940480
  H        32.5061164320       14.1541678448        0.2596679649
  H        29.8811727489       12.5430401409       11.8892721706
  H        28.8566916914       10.6312467054       10.6548381786
  H        25.1967356231       11.1862330194       12.8447387507
  H        26.2436347687       13.0837148080       14.0919359846
  H        27.1563182610       11.6925705114        9.2335508109
  H        33.2893289986       14.1914163919       14.4293160011
  H        33.4036327703       14.4165223070        1.6039854990
  H        32.1153658889       18.5132013874       13.1503814634
  H        30.2115850195       14.1898844709        0.0828939097
  H        16.1188372533        2.9632804287        4.1352885211
  H        14.9536678982        4.8203318988        5.3280662695
  H        17.3655149256        7.6859901157        3.2145763449
  H        18.5142322924        5.8184094500        2.0147171355
  H        16.7538327020        5.7397659459        6.7766519310
  H        44.8282845588       32.1401906893        3.9819539697
  H        45.9375625488       30.3412595060        5.3113377970
  H        43.6820469767       27.3781488809        3.1577607329
  H        42.5993841084       29.1899717255        1.8151928615
  H        44.2304043768       29.4367221458        6.7739126325
  H        14.8508552643        8.5460850480        3.3684451785
  H        44.9001018523       32.2339879469       11.9268733243
  H        46.0249011744       30.4128950363       10.6473307459
  H        43.7628655713       27.4840584460       12.8397807875
  H        42.6452027941       29.3177003214       14.1188654976
  H        44.2685022509       29.4704993492        9.2129739206
  H        35.0672950710       26.6188810382       12.6270457952
  H        36.6050390759       35.1340735750        0.1857681565
  H        16.1439573737        3.0129691054       11.8986852341
  H        14.9744081453        4.8563314910       10.6829234182
  H        17.3956094109        7.7473018265       12.7505821830
  H        18.5426414341        5.8933147123       13.9782420047
  H        16.7649380763        5.7557130856        9.2141937174
  H        36.2786680366       34.4822314837       14.2682627149
  H        36.3809736568       34.2091524514        1.5047888235
  H        40.5796869932       33.2020569737       13.1485956766
  H        17.4708330364        1.9471598238       15.9689848033
  H        29.0548019639       19.4037415458        4.5054369320
  H        28.8254017405       18.5572272156       11.8523993324
  H        30.4854956262       15.6747291778       11.8670965364
  H        31.0131769683       15.6028085402        4.4714810261
  H        27.9707966664       17.7633367963        6.5671261537
  H        29.0645455831       15.6649584582        6.5672931311
  H        30.0311478041       19.7690861620       10.0976337530
  H        32.0375188761       16.0727008419        9.9325002075
  H        18.8536646943        0.8691248110        4.3404700846
  H        40.5277982297       35.2292399873       11.9470408060
  H        42.3237605940       34.4187667320       11.5857659288
  H        22.0879806827        0.6921473701        4.3566056716
  H        11.5970654013       18.7128098538        4.3873918925
  H        52.2647610995       18.4308985045       11.6724435642
  H        49.2545324762       16.4773363430       11.5798308743
  H        10.1502380650       15.7982405465        4.2978418281
  H        50.8497469351       17.6924907708       11.9491699543
  H        10.0459735712       17.3945735400        4.0570787343
  H        20.2148481748        0.0023122002        4.0471334836
  H        39.1834241523       36.1243008174       11.6812608141
 Ni        30.8205971843       17.7896375621       10.8301629884
 Ni        30.7754893209       16.4990945598        7.9975108601
 Ni        29.6347420153       18.5277452788        8.1560566716
 Ni        29.9700027804       17.4488026344        5.2454949298
  O        10.6499026771       14.3651686757       13.4806902747
  O        12.6131484415       14.6575421524       14.5788044502
  O        49.1477274749       16.8459854458       15.9846705663
  O        50.3500814101       20.9360834429       13.6431382704
  O        48.3484666814       20.5932662693       14.6609035071
  O        11.0513980781       17.0539874235       14.4955540593
  O        50.3209904826       20.8816569268        2.4119097574
  O        48.3467297604       20.5867116425        1.3322107525
  O        49.5435677203       18.2484314275        2.0733895072
  O        12.3588775861       18.6245917171        0.0048422717
  O        48.6931835029       14.1486250761       14.7461741300
  O         8.2098494909       14.2104290497        1.3276661271
  O        10.7353234704       14.5067436475        2.6694231879
  O        12.5717943561       14.5828403463        1.3335943445
  O        22.8449487861        2.0438030070       13.4819267776
  O        21.6056597935        3.5926239529       14.5843561464
  O        42.0581271245       34.1372973284       15.9737827996
  O        37.9815222020       33.1377336679       13.5675696734
  O        39.2179484570       31.5760208155       14.6613109862
  O        20.3084110018        1.0396011555       14.4969377226
  O        38.0249806833       33.1865780490        2.4199484187
  O        39.2191983408       31.5839170836        1.3315375365
  O        40.6523383961       33.7693719126        2.0653269500
  O        18.2555476093        1.3760340912        0.0019171873
  O        44.6222172982       35.1005394256       14.7536093376
  O        24.2054116361        0.0000097708        1.3259286787
  O        22.7531538970        2.0578740736        2.5889807131
  O        21.6247441698        3.5964061014        1.3481885014
  O        27.4971287111       18.7488363156       13.4859986225
  O        26.7603380867       16.9366348089       14.6489114762
  O        30.6665411357       19.4088149998        0.0677275794
  O        33.5802194352       16.2799792409       13.6596010223
  O        34.2744242263       18.1664649035       14.7323385718
  O        29.5714646513       17.0652780605       14.5763855175
  O        33.5521148754       16.3403858974        2.4232243347
  O        34.3000263906       18.2383705009        1.4128406036
  O        31.6494606529       18.3182532888        2.1642522921
  O        30.3184381798       15.1552654816        0.0865637031
  O        28.5558116669       21.0359763668       14.8311111668
  O        28.5151971049       20.9562302467        1.4112930599
  O        27.4595160691       18.6801600037        2.6658057378
  O        26.6943835186       16.9306787929        1.4184436362
  O        13.1489552851       18.6929437956        2.5926339373
  O        13.9195309748       16.9161873691        1.4102424436
  O        50.5957384794       19.3501508991        0.0256799294
  O        47.6828594595       16.3270273116        2.4223044513
  O        46.9503907372       18.1755664785        1.3306409688
  O        11.0695546772       17.0156154472        1.4947879422
  O        47.6758250065       16.3358257669       13.6478469874
  O        46.9258866706       18.2357296324       14.6585137480
  O        49.5684101543       18.3177544272       13.9772165209
  O        10.3185472401       15.1002706191        0.0022390306
  O        52.6707409531       21.0278960087        1.2469367157
  O        12.1467964704       20.8911904974       14.6681197327
  O        13.1078495446       18.6137537976       13.3205512008
  O        13.9572094307       16.9870339097       14.6602719901
  O        29.9662663787       14.4999932037        2.7460864947
  O        28.0816944223       14.6569608165        1.4924038233
  O        32.0794195006       16.8690145335        0.0849754477
  O        30.9658897583       20.9534702927        2.4141258146
  O        32.9472104064       20.6008402839        1.3438965157
  O        29.5606499221       17.0835250274        1.5797397897
  O        30.9063392749       20.8765908579       13.5800468207
  O        32.8803144124       20.5848911063       14.6632389418
  O        31.6859386941       18.2516674115       13.9844369417
  O        28.2927642235       18.6804621365        0.0783111214
  O        32.4884405322       14.2154266486        1.3359129241
  O        32.3990939204       14.2159013102       14.8175837292
  O        29.8737103787       14.5055790121       13.4084194224
  O        28.0409291707       14.5868375792       14.7450677911
  O        17.8892276862        1.9666653480        2.6679037455
  O        18.9562734445        3.5271557587        1.4130698332
  O        39.1686975697       34.1388285569        0.0022488375
  O        43.2802048319       33.0589626006        2.3367747652
  O        42.0345124313       31.5064719841        1.2466998278
  O        20.3177448930        1.0367811034        1.4852695744
  O        43.2760402301       33.1826042835       13.5697786737
  O        42.0052415178       31.5841263861       14.5778238013
  O        40.5789803567       33.7749160044       13.9305961048
  O        22.3673223927        1.3846618388        0.0030693059
  O        36.6727159502       35.0998218692        1.2383743656
  O        16.4455185924        0.0642585652       14.6631588533
  O        17.9364686813        2.0433913895       13.3212745514
  O        18.9190741941        3.5931224098       14.6608562096
  O        29.7377439967       18.8240084747       12.0774567509
  O        29.8183866563       18.9753806389        4.0758501867
  O        31.1751607602       16.3358638712       12.0741109360
  O        31.1781144532       16.4806219896        4.0770883959
  O        31.7859997354       16.9124981066        9.4987171785
  O        29.9950020035       15.9036856283        6.4058483402
  O        30.5908652401       19.1390089556        9.5977287297
  O        28.7662721622       18.3204751729        6.4937963998
  O        39.4567508586       35.2437602274       11.9968655523
  O        19.1415855231        0.0047160343        3.9956464260
  O        41.9697989088       35.1730199422       12.0821411762
  O        21.6914450681       -0.0692207147        3.9010111969
  O        51.3649268905       18.6142682591       12.0003429617
  O        10.7511863050       18.7471872738        3.9100115479
  O        50.0792249670       16.4128087994       12.0866680856
  O         9.5244128577       16.4830977776        3.9962771926
 Zr         9.2962896039       16.0528976225       14.1772471567
 Zr        49.8358744446       16.0069215171        1.7516502240
 Zr        22.0731078361        0.0296024200       14.1839956665
 Zr        42.4607685319       35.1530720142        1.8059745521
 Zr        29.6208178088       19.0880277847       14.2664946804
 Zr        29.5828479760       19.1824074757        1.8778276598
 Zr        11.0375765564       19.0520905088        1.8327866085
 Zr        11.0433030971       19.1549523119       14.2461833627
 Zr        31.3323582273       16.1187612556        1.8951811141
 Zr        31.3922048474       16.0227360208       14.2652254353
 Zr        18.6010420988       -0.0016358735        1.7684980023
 Zr        18.5063081813       -0.0081262550       14.2086073633
 Zr        12.3015498107       16.3236706414       15.9851856980
 Zr        48.6153498193       18.8329128427        0.0154809645
 Zr        20.3151123884        2.4731038562       15.9854977726
 Zr        40.6431672752       32.6865727074       15.9730095612
 Zr        28.3495769446       16.3513435394        0.0846368052
 Zr        32.6269721566       18.8405684046        0.0562233129
  O        28.8879586350       20.7281631122        8.0636728067
  H        29.7521169109       21.1102763119        7.8262445976
  H        28.4807660129       20.5024814862        7.2043591580
  O        31.9744064135       14.5130646663        7.8999765817
  H        32.8282175394       14.8296155145        7.5550082597
  H        31.4498842569       14.3133504985        7.0989487180
