     574
 i =       75, E =     -4778.8247670659
  C        11.8582991885       14.0529146634       13.7375402457
  C        12.4565968962       12.8912494451       13.0175209429
  C        11.7048751481       12.1722074290       12.0760338224
  C        12.2814131693       11.1103816814       11.3832322338
  C        13.6215939517       10.7397354457       11.6117777210
  C        14.3545197777       11.4429802938       12.5856466735
  C        13.7814478967       12.5075705901       13.2776046155
  C        14.2613533755        9.6493308132       10.8382555783
  C        14.2566085447        9.6572598240        9.4165611900
  C        13.7438837793       10.7595823989        8.6626368202
  C        49.1186029321       21.2086104057       13.8477516193
  C        48.5518161703       22.3875810394       13.1404195206
  C        49.2654754844       23.0038486457       12.0989117292
  C        48.6949557301       24.0452987216       11.3774126827
  C        47.3980444735       24.5161327836       11.6831108368
  C        46.7156743957       23.9273653181       12.7711111093
  C        47.2782068246       22.8728121684       13.4811084992
  C        46.7587377638       25.5789606356       10.8984532568
  C        46.7812791077       25.5691499322        9.4425611580
  C        47.2411787167       24.4624787448        8.7143959202
  C        14.8607901646        8.5710154008        8.7033684616
  C        14.8916156736        8.5971007918       11.5149452301
  C        49.1192613025       21.2060063633        2.1454908362
  C        48.5439164555       22.3760523133        2.8587940355
  C        49.2498928843       22.9855959011        3.9096409261
  C        48.6692658065       24.0142471181        4.6414278382
  C        47.3674547338       24.4752091512        4.3398685749
  C        46.6908413176       23.8892635446        3.2459755809
  C        47.2636473069       22.8487518133        2.5254322490
  C        46.7177393458       25.5306631119        5.1232778997
  C        46.7599416805       25.5447475273        6.5784075284
  C        47.2337526498       24.4516997702        7.3182067444
  C        40.6197098511       17.0907549025        7.3140689403
  C        40.6269995769       17.1038108609        4.5040689844
  C        11.8828056653       14.0864997984        2.2905439635
  C        12.4721163256       12.9105640243        2.9947331617
  C        11.7147099081       12.1778668749        3.9212769334
  C        12.2813533800       11.0954486325        4.5897026049
  C        13.6199101680       10.7211473290        4.3573721611
  C        14.3575205619       11.4361779885        3.3959102590
  C        13.7921738555       12.5173206438        2.7231305000
  C        14.2536333108        9.6244703483        5.1277300887
  C        14.2528232597        9.6448222949        6.5495592570
  C        13.7431294212       10.7538864832        7.2965934385
  C        22.5116324525        3.2442781419       13.7486305125
  C        23.2273409668        4.3500753297       13.0504574572
  C        24.2273849516        4.0699312695       12.1077207662
  C        24.8544328215        5.1093885552       11.4256337962
  C        24.4954029933        6.4505832935       11.6651580770
  C        23.5246807571        6.7225543855       12.6462920274
  C        22.8933408430        5.6848843132       13.3270608983
  C        25.0994222433        7.5570170787       10.8884646975
  C        25.0736040635        7.5469435059        9.4669493706
  C        24.3765753369        6.5434533369        8.7218454520
  C        38.3020052764       31.9296393370       13.8434121700
  C        37.5719952091       30.8410456302       13.1323780475
  C        36.6093664410       31.1471894865       12.1582309501
  C        35.9893941304       30.1290005117       11.4393424080
  C        36.3175715774       28.7792483739       11.6730041639
  C        37.2516082079       28.4801171236       12.6826578090
  C        37.8753066828       29.4973124181       13.4005741303
  C        35.7125442918       27.6889873480       10.8753599677
  C        35.7413422415       27.7056188534        9.4539037692
  C        36.4421898670       28.7111671533        8.7158409871
  C        25.6927280211        8.6179770753        8.7451342836
  C        25.6920260280        8.6353772710       11.5571481607
  C        38.3271331381       31.9624405100        2.1591260340
  C        37.6027180334       30.8898717227        2.8988047250
  C        36.6692036188       31.1993858923        3.8996981390
  C        36.0567069603       30.1814068258        4.6278022538
  C        36.3640672854       28.8288633128        4.3786985995
  C        37.2739034320       28.5292543465        3.3462671393
  C        37.8880692164       29.5437071903        2.6189956253
  C        35.7574875494       27.7302598258        5.1643941822
  C        35.7639447366       27.7269301870        6.5865319043
  C        36.4523985559       28.7218959071        7.3492659655
  C        46.1863900694       26.6521638576        7.2878283327
  C        46.0420976856       26.5564001477        4.4567996078
  C        22.4598354623        3.2544081266        2.2623786326
  C        23.1539586241        4.3620207164        2.9862531616
  C        24.1570950702        4.0738662910        3.9251033233
  C        24.7858913072        5.1028305839        4.6216940325
  C        24.4297362224        6.4483426679        4.4023818682
  C        23.4492941196        6.7297941279        3.4324118525
  C        22.8160335546        5.7011423065        2.7362038299
  C        25.0610789673        7.5458618454        5.1756061059
  C        25.0542448784        7.5410765034        6.5981023672
  C        24.3654948180        6.5415114684        7.3552907142
  C        26.6203125836       17.8625783104       13.7776052119
  C        25.3115384880       17.9081392919       13.0546695632
  C        25.0434733216       18.9134946212       12.1123787866
  C        23.8315350629       18.9315380855       11.4245632119
  C        22.8474638182       17.9505428071       11.6619599667
  C        23.1095902491       16.9690896832       12.6363033595
  C        24.3242412614       16.9452910372       13.3207319776
  C        21.5750551417       17.9351678389       10.8960664837
  C        21.5761463017       17.9131295776        9.4737783536
  C        22.7823948986       17.7859405411        8.7150109823
  C        34.4407797726       17.1934922598       13.9139655988
  C        35.7372525192       17.1398136194       13.1766794448
  C        35.9417155179       16.1669485458       12.1859116303
  C        37.1212677159       16.1514574003       11.4470859999
  C        38.1272966618       17.1106586607       11.6754191986
  C        37.9261480392       18.0635081836       12.6924696711
  C        36.7434639313       18.0844143069       13.4288197730
  C        39.3800133624       17.1162642779       10.8848380366
  C        39.3704194716       17.1233969637        9.4627158647
  C        38.1607976002       17.2456294219        8.7088956612
  C        20.3302023217       17.9304176224        8.7639680256
  C        20.3500255644       17.9371750271       11.5774576953
  C        34.4385649851       17.2375349648        2.1907123270
  C        35.7385846714       17.1407406478        2.9171763986
  C        35.9416968951       16.1644195065        3.9036907156
  C        37.1312396717       16.1350814890        4.6274179563
  C        38.1475179568       17.0797815570        4.3838053072
  C        37.9506706288       18.0273981622        3.3621325666
  C        36.7603260697       18.0625657025        2.6420079937
  C        39.3981261310       17.0939523091        5.1743726278
  C        39.3795461985       17.1128259033        6.5957271788
  C        38.1653477955       17.2408610640        7.3420757790
  C        35.1379864031       26.6457569724        7.2916030485
  C        35.1737015925       26.6554499185        4.4821940832
  C        26.5715131992       17.8263063149        2.3272670409
  C        25.2589392698       17.8637885411        3.0402225933
  C        24.9982369641       18.8629697833        3.9897349323
  C        23.7804466061       18.8880535306        4.6631742706
  C        22.7937469644       17.9137402889        4.4118044737
  C        23.0500355182       16.9388457287        3.4308881409
  C        24.2683154988       16.9120650277        2.7543576663
  C        21.5297508462       17.8971877796        5.1837646095
  C        21.5529226942       17.8900268192        6.6053020789
  C        22.7706771105       17.7731341030        7.3487506753
  C        14.0464183049       17.8289807763        2.2943604753
  C        15.3522117853       17.8869556133        3.0186154325
  C        15.6096349382       18.8904326484        3.9657162988
  C        16.8187438819       18.9109807466        4.6587249850
  C        17.8045039096       17.9302888524        4.4273745841
  C        17.5521679430       16.9513419188        3.4477263521
  C        16.3425173302       16.9262735301        2.7563967012
  C        19.0733862670       17.9119218044        5.1971412309
  C        19.0714824604       17.9098834244        6.6197509339
  C        17.8639247949       17.8136705447        7.3804507972
  C        46.8011916118       17.2148657995        2.1597256597
  C        45.5078087705       17.1452563799        2.9008223612
  C        45.3003938879       16.1596406642        3.8784335295
  C        44.1159389270       16.1318177081        4.6101677681
  C        43.1063729621       17.0882463875        4.3855585918
  C        43.3091203321       18.0512435743        3.3782721322
  C        44.4947161755       18.0827810726        2.6475207753
  C        41.8540062055       17.0944941778        5.1775744784
  C        41.8639435259       17.0997049606        6.5999583383
  C        43.0754490399       17.1974338457        7.3540796306
  C        20.3178078655       17.9193012349        7.3291364782
  C        20.2981547332       17.8887799326        4.5160988919
  C        46.7856661829       17.2325309728       13.8808927125
  C        45.4854627568       17.1291973462       13.1590871441
  C        45.2690410757       16.1301331618       12.1977326232
  C        44.0827871801       16.1023953178       11.4684990363
  C        43.0828944891       17.0708507522       11.6832625081
  C        43.2910409586       18.0419903739       12.6805143503
  C        44.4782707152       18.0757990429       13.4051302367
  C        41.8348771333       17.0889349630       10.8887492893
  C        41.8546653144       17.0949031635        9.4675257607
  C        43.0711385117       17.1933507837        8.7209030690
  C        46.2030603017       26.6672387594        8.7230327965
  C        46.1138109375       26.6270678912       11.5589431570
  C        14.0446010505       17.8299764481       13.7028577246
  C        15.3661887716       17.9045135947       13.0131928078
  C        15.6397687211       18.9203989523       12.0853760801
  C        16.8689484619       18.9578298521       11.4310997191
  C        17.8507699099       17.9773507563       11.6776229201
  C        17.5839433266       16.9897589124       12.6431347543
  C        16.3567714167       16.9519006783       13.3011005940
  C        19.1182314800       17.9542174547       10.9094593021
  C        19.0946988181       17.9302338593        9.4879998557
  C        17.8752463905       17.8221937116        8.7464700310
  C        28.8094010987       14.0840191405        2.3884606749
  C        28.1919588385       12.9119892204        3.0769729998
  C        28.9158973100       12.1640603698        4.0170244627
  C        28.3152681098       11.0927169011        4.6729034467
  C        26.9783424556       10.7369143652        4.4041217403
  C        26.2780699057       11.4584735235        3.4208987434
  C        26.8771347609       12.5310211197        2.7643463811
  C        26.3088649588        9.6604710609        5.1691757028
  C        26.2962218594        9.6892641066        6.5900988264
  C        26.7959946525       10.8050228503        7.3342575263
  C        32.1814370972       21.2371881218        2.1449854020
  C        32.7779667630       22.3999716346        2.8691106207
  C        32.0276360223       23.0847666309        3.8375979872
  C        32.6000559866       24.1224072489        4.5668011457
  C        33.9365699112       24.5068092325        4.3445391553
  C        34.6690641478       23.8405446019        3.3447485825
  C        34.0992509382       22.7964987193        2.6183095352
  C        34.5628984518       25.5845935538        5.1432082592
  C        34.5534562190       25.5578287070        6.5644999968
  C        34.0519961061       24.4394593359        7.3025404019
  C        25.6884850929        8.6113508758        7.3107280478
  C        25.6739765267        8.6078918992        4.4977082045
  C        32.1160825123       21.1977386421       13.8414584457
  C        32.6997235143       22.3602651002       13.1091766825
  C        31.9661006384       23.0150228432       12.1079958297
  C        32.5401689664       24.0549048306       11.3808617288
  C        33.8634603548       24.4674106004       11.6342868159
  C        34.5785931593       23.8271590924       12.6645940360
  C        34.0080865162       22.7834375380       13.3887056774
  C        34.5012897477       25.5521922950       10.8526097344
  C        34.5201704743       25.5420020991        9.4306024235
  C        34.0352127657       24.4322770041        8.6690732813
  C        40.6143847482       17.0924017641        8.7489363548
  C        40.6065059529       17.1165539897       11.5589007276
  C        28.7182024932       14.0933298934       13.7830475811
  C        28.1125561327       12.9413703972       13.0523299332
  C        28.8524483684       12.2352537346       12.0912835011
  C        28.2737305354       11.1731047799       11.4011736588
  C        26.9398104113       10.7912294751       11.6476340832
  C        26.2175648465       11.4825077135       12.6380548323
  C        26.7954205350       12.5443848218       13.3307349122
  C        26.3000118676        9.6985379636       10.8776467568
  C        26.2924279797        9.7086545172        9.4560400311
  C        26.7916462066       10.8159075416        8.7001279818
  C        18.1355144643        3.1807347573        2.3222820315
  C        17.4059313947        4.2780719890        3.0207229616
  C        16.3908862848        3.9997631159        3.9489646853
  C        15.7431185799        5.0397036124        4.6124968151
  C        16.0942045225        6.3834799284        4.3719827629
  C        17.0830257399        6.6530052392        3.4076599382
  C        17.7320822443        5.6156290280        2.7426311174
  C        15.4701004467        7.4911993575        5.1351264763
  C        15.4857429879        7.4907968801        6.5568308850
  C        16.1875172594        6.4973341679        7.3099905350
  C        42.9492263050       31.8614034902        2.0724878619
  C        43.6571517713       30.7761596510        2.8048427738
  C        44.5467303223       31.0968253937        3.8434172378
  C        45.1439900134       30.0909212476        4.5925899530
  C        44.8804933395       28.7301575030        4.3194902632
  C        44.0221933426       28.4207032498        3.2406132578
  C        43.4111503098       29.4275378101        2.5016028326
  C        45.4803173235       27.6526000118        5.1146006321
  C        45.5189413386       27.6996374685        6.5693658873
  C        44.8226094652       28.6722322033        7.3014827507
  C        14.8567892379        8.5633225122        7.2691483207
  C        14.8745839316        8.5627822118        4.4564606310
  C        42.9533684762       31.9636642925       13.8114195065
  C        43.7157608929       30.8932347603       13.1188235506
  C        44.6160195406       31.1969145583       12.0832097149
  C        45.2283931648       30.1768585210       11.3638421088
  C        44.9768945598       28.8194898157       11.6689044996
  C        44.1257227020       28.5309056622       12.7594633985
  C        43.4936116724       29.5482613494       13.4617265262
  C        45.5588885974       27.7220230463       10.8896633566
  C        45.5608679865       27.7351588393        9.4337069334
  C        44.8458106804       28.6911394521        8.6977160835
  C        35.1237363898       26.6362075196        8.7263661641
  C        35.1091185716       26.6125941557       11.5356918885
  C        18.1484862663        3.2468625885       13.7015121773
  C        17.4297674316        4.3438349934       12.9922569399
  C        16.4151022161        4.0526167344       12.0680874104
  C        15.7668837896        5.0832161493       11.3925309317
  C        16.1209024608        6.4284995211       11.6159714619
  C        17.1116907188        6.7119089673       12.5738296209
  C        17.7592068733        5.6829484608       13.2536868065
  C        15.4907441256        7.5243031018       10.8434145512
  C        15.4967709255        7.5077785379        9.4222785474
  C        16.1937423712        6.5062220952        8.6755878765
  H        10.6730726539       12.4671049695       11.8983627570
  H        11.6952605511       10.5522662156       10.6563118237
  H        15.3912736166       11.1677551828       12.7679797678
  H        14.3507153998       13.0705515955       14.0133792986
  H        13.3768661298       11.6316894562        9.1959704292
  H        50.2606350224       22.6372597616       11.8583181885
  H        49.2540318535       24.5187302775       10.5737990516
  H        45.7143526252       24.2749427848       13.0168947475
  H        46.7377943550       22.3882189915       14.2909844102
  H        47.5787518136       23.5770239062        9.2443825010
  H        14.8716637906        8.5882831923       12.6032453769
  H        50.2473278577       22.6234281025        4.1479276464
  H        49.2244242453       24.4855149837        5.4489886927
  H        45.6853075303       24.2275577387        3.0049848611
  H        46.7272244165       22.3665309662        1.7115411871
  H        47.5682924559       23.5594928514        6.7975389962
  H        40.6281430812       17.0663866351        3.4163274557
  H        48.6870352551       14.0949913299       15.7953773997
  H        10.6814634045       12.4674646780        4.0991708998
  H        11.6897936689       10.5254330362        5.3028850495
  H        15.3927234039       11.1578266464        3.2094461322
  H        14.3641870419       13.0863935856        1.9941145683
  H        13.3763661510       11.6225110955        6.7579297771
  H        47.9298388106       14.2196301274        1.7153051052
  H        47.7797317876       14.3740619845       14.4909978502
  H        49.0828053829       18.5559068416        2.8696706747
  H        10.4157495138       14.1342528374        0.0044118882
  H        24.4908143743        3.0313884290       11.9200478874
  H        25.6301648857        4.8922634773       10.6945288329
  H        23.2409948826        7.7553179108       12.8379697441
  H        22.1209578217        5.8847695200       14.0657212570
  H        23.8197710589        5.7842812850        9.2633300778
  H        36.3716653719       32.1908685109       11.9666578981
  H        35.2427549981       30.3700629946       10.6858858927
  H        37.5134957432       27.4406047907       12.8689175140
  H        38.6219519065       29.2744468112       14.1591124816
  H        37.0044782358       29.4634213160        9.2613793512
  H        25.7255453430        8.6207001645       12.6450412100
  H        36.4451832547       32.2437891934        4.1047362221
  H        35.3273299679       30.4267194907        5.3965926646
  H        37.5221106840       27.4889160171        3.1467124768
  H        38.6135614394       29.3177399330        1.8413225897
  H        37.0224377376       29.4826860563        6.8237990087
  H        46.0403760997       26.5522899493        3.3685153250
  H        44.6686873182       35.1155942443       15.8084824199
  H        24.4350243745        3.0352372931        4.0894306757
  H        25.5677477394        4.8733695671        5.3425523181
  H        23.1633031026        7.7646192452        3.2554724740
  H        22.0430009053        5.9143005630        2.0015416638
  H        23.7986918722        5.7819190276        6.8247923379
  H        44.9524372667       34.3892880349        1.6998930184
  H        44.8994204974       34.2064633451       14.4838601241
  H        40.6660839730       33.2075706872        2.8568780889
  H        23.1507568515        1.9569825139        0.0105182800
  H        25.7980023394       19.6761018192       11.9339503425
  H        23.6300899691       19.7169014623       10.6991323138
  H        22.3608951102       16.2031322574       12.8282704868
  H        24.5362208011       16.1730815702       14.0566752437
  H        23.7220504627       17.6662784269        9.2467008533
  H        35.1572482170       15.4356693717       12.0056304075
  H        37.2784715547       15.3893721883       10.6869320074
  H        38.6943829072       18.8123930038       12.8739477484
  H        36.5705366930       18.8362937448       14.1955187985
  H        37.2239690281       17.3788697903        9.2427430261
  H        20.3555993607       17.9769557307       12.6653201951
  H        35.1483217111       15.4468688510        4.0997172795
  H        37.2880439844       15.3765445197        5.3912034918
  H        38.7280959187       18.7633334114        3.1677292095
  H        36.5876325959       18.8134980428        1.8748378176
  H        37.2316699317       17.3705613456        6.8023039432
  H        35.1482509609       26.6786818769        3.3943643176
  H        28.5103957466       21.0746962347       15.8783508299
  H        25.7640918888       19.6108655236        4.1812977885
  H        23.5763463819       19.6676490054        5.3938684720
  H        22.2969720841       16.1793163391        3.2310010276
  H        24.4815173336       16.1481733627        2.0103747492
  H        23.7015582410       17.6422064564        6.8051173533
  H        29.0106485810       21.7231005528        1.7419486917
  H        29.1903385278       21.7256565950       14.5612187985
  H        32.0826254853       18.5769196688        2.9875443204
  H        27.4058737002       19.0718562123        0.0800444920
  H        14.8516464270       19.6500844368        4.1433403257
  H        17.0140852501       19.6956672258        5.3865160540
  H        18.3028498892       16.1864291410        3.2596633387
  H        16.1363267971       16.1568085129        2.0161894573
  H        16.9215763695       17.6997013680        6.8525188139
  H        46.0863384233       15.4305049475        4.0607120587
  H        43.9584620567       15.3608204810        5.3612331582
  H        42.5380047798       18.7975981176        3.1987583303
  H        44.6667091730       18.8421345563        1.8881841783
  H        44.0152815672       17.3082579193        6.8207943913
  H        20.2930942485       17.9179845228        3.4279350575
  H        46.0455198034       15.3884907136       12.0246647751
  H        43.9175232835       15.3261259350       10.7245375202
  H        42.5248236297       18.7951947335       12.8518734074
  H        44.6591962509       18.8436699870       14.1532745029
  H        44.0080513503       17.2996638309        9.2600751269
  H        46.1299312107       26.6398493433       12.6471898451
  H        52.7368783821       21.0646645013        0.1990692404
  H        14.8796153639       19.6747854279       11.8948640204
  H        17.0809327167       19.7488679741       10.7150024469
  H        18.3338682781       16.2265644011       12.8408698922
  H        16.1348089476       16.1767726353       14.0305869529
  H        16.9415038269       17.7138142158        9.2900475449
  H        52.3300235309       21.6756114899       14.2757431462
  H        52.0135156343       21.7006213404        1.5040631360
  H        49.0723323811       18.6037982513       13.1964161203
  H        13.2467865393       19.0163393822       15.9722791958
  H        29.9464465510       12.4431552097        4.2228019044
  H        28.8767314068       10.5134987949        5.4027782748
  H        25.2461274475       11.1903791393        3.2034680968
  H        26.3324928939       13.1092159568        2.0218074653
  H        27.1571496687       11.6735450977        6.7915725974
  H        30.9996738193       22.7760022222        4.0115899363
  H        32.0154780333       24.6541217665        5.3144760809
  H        35.7036241438       24.1277018927        3.1684905538
  H        34.6694939742       22.2561657697        1.8662018308
  H        33.7089818150       23.5655385451        6.7560132735
  H        25.7031546811        8.5868352791        3.4097411229
  H        30.9483122014       22.6876476740       11.9082074168
  H        31.9639516575       24.5636676284       10.6111302160
  H        35.6027457625       24.1343214924       12.8661889786
  H        34.5658578654       22.2655363002       14.1655862750
  H        33.6782689947       23.5526679741        9.1973212984
  H        40.6040131667       17.0845472838       12.6467592195
  H        32.5070211984       14.1563135059        0.2547622151
  H        29.8837969967       12.5269762630       11.9055348223
  H        28.8535549567       10.6191683534       10.6660113164
  H        25.1858064774       11.1988829500       12.8356215436
  H        26.2368373341       13.0948226427       14.0841048795
  H        27.1469154499       11.6936194451        9.2322519256
  H        33.2889848649       14.1890444037       14.4257491558
  H        33.4052206709       14.4220779914        1.5990396639
  H        32.1837467913       18.5498403452       13.1484232761
  H        30.2016420632       14.1895419846        0.0810411249
  H        16.1193954213        2.9632066664        4.1359080364
  H        14.9540937142        4.8202949855        5.3286161059
  H        17.3647431977        7.6859386780        3.2138388214
  H        18.5134877317        5.8181975683        2.0140871122
  H        16.7540974622        5.7400297688        6.7764731779
  H        44.7414330913       32.1453003835        4.0565504614
  H        45.8379453043       30.3472157254        5.3895490295
  H        43.8032308928       27.3774005455        3.0232434951
  H        42.7180541168       29.1930956812        1.6968952181
  H        44.2210667744       29.4074889150        6.7754319421
  H        14.8503350943        8.5458449906        3.3682529374
  H        44.8121195549       32.2398823431       11.8446822344
  H        45.9214956721       30.4196691061       10.5616864696
  H        43.9215100675       27.4917703036       13.0084503167
  H        42.7990632580       29.3270705218       14.2686589256
  H        44.2629931223       29.4421825388        9.2224448303
  H        35.0675589970       26.6248758956       12.6232003014
  H        36.6052716705       35.1340441851        0.1855251151
  H        16.1445430866        3.0129795219       11.8978643154
  H        14.9749883829        4.8563372246       10.6819741610
  H        17.3946240203        7.7474258545       12.7513528325
  H        18.5415297204        5.8933121440       13.9790717742
  H        16.7652226654        5.7560231429        9.2140245981
  H        36.2793397193       34.4815568415       14.2686977199
  H        36.3818258463       34.2087769728        1.5043627378
  H        40.5819332165       33.1998356593       13.1501547052
  H        17.4706741181        1.9471649297       15.9690591049
  H        28.9315606352       19.3475459853        4.4075175904
  H        28.9918133919       19.2139240540       11.5721612474
  H        30.5788255157       15.5702943973       11.8441603893
  H        31.0423590237       15.5270560844        4.4627115764
  H        27.8494412083       17.7151715259        6.6129401288
  H        28.7946014569       15.6002534521        6.5586345020
  H        30.2695132046       20.0819819740        9.5064723587
  H        32.1512268701       15.9823293224        9.7203167797
  H        18.8538049046        0.8694604601        4.3393131475
  H        40.5281817185       35.2292494229       11.9477021381
  H        42.3197882445       34.4140306289       11.5897005454
  H        22.0862954912        0.6937799022        4.3553608987
  H        11.5987316100       18.7094395980        4.3841462531
  H        52.2658089703       18.4232886868       11.6716097987
  H        49.2543789070       16.4768179255       11.5800355796
  H        10.1506896442       15.7990443205        4.2970389829
  H        50.8492158456       17.6898151826       11.9467288480
  H        10.0457551535       17.3952712910        4.0561824301
  H        20.2145229688        0.0018302460        4.0469739267
  H        39.1836422567       36.1245203298       11.6818088099
 Ni        30.7391589312       17.7840158750       10.5840887456
 Ni        30.6531368538       16.4712004732        7.9047752645
 Ni        29.7608732510       18.6923845772        7.6595857468
 Ni        29.9279943811       17.4224924812        5.1679589933
  O        10.6502381843       14.3652146302       13.4800027170
  O        12.6138090902       14.6578126057       14.5782259607
  O        49.1482875895       16.8456561339       15.9844681713
  O        50.3232530586       20.8737815386       13.5695476903
  O        48.3494752008       20.5916254055       14.6619479441
  O        11.0524991792       17.0513296006       14.4947909867
  O        50.3271865732       20.8801768556        2.4098008223
  O        48.3491500418       20.5867616583        1.3310825632
  O        49.5451420294       18.2491728017        2.0729776420
  O        12.3585333837       18.6242630861        0.0038156259
  O        48.6931501385       14.1488703832       14.7463494288
  O         8.2098057570       14.2102045987        1.3275234197
  O        10.7354009210       14.5064330928        2.6698260716
  O        12.5721394602       14.5825501093        1.3337580647
  O        22.8451925206        2.0438175886       13.4821433918
  O        21.6053251056        3.5922672968       14.5849736815
  O        42.0578753526       34.1373219678       15.9738185905
  O        37.9818914525       33.1383849982       13.5677403651
  O        39.2173897007       31.5756785597       14.6606963940
  O        20.3077810838        1.0392327015       14.4972881200
  O        38.0252021407       33.1863386575        2.4201842089
  O        39.2193728758       31.5837144430        1.3318272212
  O        40.6524740186       33.7694743048        2.0651352386
  O        18.2553806719        1.3760342652        0.0016083197
  O        44.6224637870       35.1007200514       14.7535012245
  O        24.2054221026        0.0000232540        1.3260029813
  O        22.7529405491        2.0569567791        2.5885867795
  O        21.6241863119        3.5954652495        1.3474675437
  O        27.4971058206       18.7526587167       13.4857451761
  O        26.7656168248       16.9347570817       14.6452060564
  O        30.6658483651       19.4076055423        0.0103469616
  O        33.5866243254       16.2770575520       13.6620273765
  O        34.2738211263       18.1673612276       14.7304328513
  O        29.5755509252       17.0661330743       14.5703752853
  O        33.5520672240       16.3403455802        2.4212810337
  O        34.3014579755       18.2399016931        1.4127740179
  O        31.6488930506       18.3153844294        2.1587487550
  O        30.3213761843       15.1532796510        0.0810162503
  O        28.5538605090       21.0349487146       14.8234150084
  O        28.5147168741       20.9573031364        1.4061380901
  O        27.4537149976       18.6805286709        2.6621980843
  O        26.6931403415       16.9263200494        1.4174964299
  O        13.1490329530       18.6933374835        2.5924527858
  O        13.9203593329       16.9166312881        1.4102181887
  O        50.5953329772       19.3510547350        0.0196622074
  O        47.6827807186       16.3276032189        2.4233855604
  O        46.9509928366       18.1763752161        1.3313659784
  O        11.0691011042       17.0156351594        1.4946828426
  O        47.6757295882       16.3353988843       13.6477236339
  O        46.9257853277       18.2356145458       14.6585419389
  O        49.5670672111       18.3118411479       13.9778201365
  O        10.3172621788       15.0999771525        0.0033332517
  O        52.6702002721       21.0270902012        1.2458037736
  O        12.1410613621       20.8912266755       14.6649106051
  O        13.1083160248       18.6136011960       13.3210781533
  O        13.9576176680       16.9871426400       14.6608251389
  O        29.9906925223       14.4388120073        2.7368078002
  O        28.0827545170       14.6532390126        1.5037342614
  O        32.0798433809       16.8704463678        0.0757606546
  O        30.9659307675       20.9531852668        2.4104051896
  O        32.9475232525       20.5979272194        1.3406747650
  O        29.5616947526       17.0788979215        1.5792114163
  O        30.9035865051       20.8767158956       13.5774825899
  O        32.8765058823       20.5823716529       14.6584105052
  O        31.6816612327       18.2483837066       13.9246582025
  O        28.2934679849       18.6788089129        0.0710989209
  O        32.4906361039       14.2143449797        1.3332272293
  O        32.3994554123       14.2142706690       14.8158035227
  O        29.8706732017       14.5002703445       13.4087012977
  O        28.0409975738       14.5888533925       14.7463062758
  O        17.8891568102        1.9665527994        2.6679198970
  O        18.9561180931        3.5273096988        1.4130660436
  O        39.1688240481       34.1393544143        0.0022582695
  O        43.2792615434       33.0616178119        2.3366558776
  O        42.0340587847       31.5073114503        1.2453106287
  O        20.3175112839        1.0364980953        1.4853611708
  O        43.2764307113       33.1864063933       13.5707736707
  O        42.0061633529       31.5839115036       14.5790890932
  O        40.5785434833       33.7751244906       13.9303442187
  O        22.3675427389        1.3839798252        0.0030668125
  O        36.6728204798       35.0997870597        1.2382836569
  O        16.4455672207        0.0641526508       14.6632169386
  O        17.9364349198        2.0433658731       13.3213933309
  O        18.9189889474        3.5929826053       14.6608237613
  O        29.7640315866       18.8102215031       11.9876869472
  O        29.7384188476       18.9796047339        3.9972921569
  O        31.2166304713       16.2757244197       12.0676022952
  O        31.2208044962       16.4031749656        4.0701163171
  O        31.7644667324       16.7888552802        9.3321766139
  O        29.7410500731       15.7616168278        6.4135343433
  O        30.5458040378       19.1894621504        9.2357000410
  O        28.4838710162       18.3950701148        6.3329701041
  O        39.4566292877       35.2435769415       11.9965412856
  O        19.1411611049        0.0044209489        3.9955965603
  O        41.9694110047       35.1729178403       12.0815641530
  O        21.6912635697       -0.0694083062        3.9014954260
  O        51.3663383933       18.6110560013       11.9981799681
  O        10.7514337335       18.7469319408        3.9094902878
  O        50.0794016194       16.4124931638       12.0863407487
  O         9.5239735645       16.4833212649        3.9960519068
 Zr         9.2954490922       16.0518949043       14.1774707884
 Zr        49.8350390142       16.0078341786        1.7517259565
 Zr        22.0735922211        0.0284078910       14.1837264416
 Zr        42.4609786548       35.1522508435        1.8057455905
 Zr        29.6136048491       19.0670962451       14.2190721456
 Zr        29.5843060291       19.1857191857        1.8398573846
 Zr        11.0367340563       19.0530418875        1.8302347470
 Zr        11.0409022248       19.1501277482       14.2396372438
 Zr        31.3352127606       16.1066424983        1.8850131758
 Zr        31.3918480326       16.0130441818       14.2289352151
 Zr        18.6013279761       -0.0020144519        1.7683128212
 Zr        18.5067466583       -0.0084618769       14.2083184166
 Zr        12.3010631870       16.3235686575       15.9857402664
 Zr        48.6150920974       18.8335519598        0.0144061563
 Zr        20.3148456412        2.4719317635       15.9852019135
 Zr        40.6441135931       32.6855778860       15.9715439539
 Zr        28.3529365870       16.3467526198        0.0878190147
 Zr        32.6204095482       18.8301527766        0.0458304109
  O        28.8452678441       21.1092907864        8.1277786810
  H        29.2690724283       21.6425117506        7.4328872026
  H        28.0016666405       20.8315417249        7.7278453294
  O        32.0994151700       14.2929126920        7.8278008696
  H        32.9263457531       14.3855400261        7.3018103675
  H        31.5386428679       13.7112811675        7.2762195429
