     572
 i =      136, E =     -4746.7832509442
  C        11.8585956351       14.0535729919       13.7365465114
  C        12.4561322361       12.8905426076       13.0182515648
  C        11.7045958943       12.1719423129       12.0762357390
  C        12.2809618054       11.1097447981       11.3838426143
  C        13.6213864645       10.7396338021       11.6119121511
  C        14.3543760949       11.4428485610       12.5857736026
  C        13.7814842635       12.5078076780       13.2773105790
  C        14.2609949082        9.6490323687       10.8384978280
  C        14.2564851533        9.6570295738        9.4167932705
  C        13.7433638508       10.7591678263        8.6628719835
  C        49.1264926305       21.2333409531       13.8746995154
  C        48.5496816259       22.4011247945       13.1475557218
  C        49.2998420814       23.0686266999       12.1667631300
  C        48.7329126889       24.1077159240       11.4335224884
  C        47.4022493517       24.5091246874       11.6618787061
  C        46.6711086960       23.8599959697       12.6750902852
  C        47.2335628686       22.8151291698       13.4044997477
  C        46.7721353339       25.5868776414       10.8645820034
  C        46.7614013251       25.5573983259        9.4428156519
  C        47.2613729438       24.4423151615        8.6993337610
  C        14.8604505675        8.5707000850        8.7035313129
  C        14.8916318273        8.5969844377       11.5151309049
  C        49.1130592858       21.2034386839        2.1504695373
  C        48.5277049453       22.3647294179        2.8776033399
  C        49.2670794373       23.0257250029        3.8702372857
  C        48.6907294607       24.0602656591        4.6016753873
  C        47.3601853040       24.4567771064        4.3636953529
  C        46.6395891800       23.8115188166        3.3405295513
  C        47.2131428335       22.7756059467        2.6087554384
  C        46.7218102784       25.5317929074        5.1547102293
  C        46.7337338146       25.5282549219        6.5764075598
  C        47.2491614072       24.4290357774        7.3327818717
  C        40.6188975256       17.0896213418        7.3162943958
  C        40.6294656547       17.1031218285        4.5065710550
  C        11.8828173779       14.0865993279        2.2905956931
  C        12.4721194295       12.9106536523        2.9947687460
  C        11.7146746618       12.1776563237        3.9210824938
  C        12.2812297862       11.0951900316        4.5895321227
  C        13.6199346677       10.7212178778        4.3574757741
  C        14.3577811313       11.4364950879        3.3963584331
  C        13.7923835090       12.5176763861        2.7236564631
  C        14.2536016467        9.6245223624        5.1279156691
  C        14.2525662288        9.6446199185        6.5497575504
  C        13.7427839634       10.7536179479        7.2968246057
  C        22.5084789485        3.2432974853       13.7459567636
  C        23.2164885231        4.3484202785       13.0399206083
  C        24.2129349085        4.0681250181       12.0935018709
  C        24.8354319145        5.1074075610       11.4071713397
  C        24.4762365001        6.4483941000       11.6474110842
  C        23.5064399506        6.7203503455       12.6294338618
  C        22.8797800941        5.6829145078       13.3144559906
  C        25.0819166373        7.5549664135       10.8727470274
  C        25.0642029428        7.5469268542        9.4512187877
  C        24.3691823952        6.5458132965        8.7009966285
  C        38.3014182103       31.9287384783       13.8444215465
  C        37.5694544099       30.8397537845       13.1367103782
  C        36.6066685493       31.1443460826       12.1621368510
  C        35.9868294231       30.1247748854       11.4450961141
  C        36.3151324013       28.7751605641       11.6801204260
  C        37.2478613068       28.4780426134       12.6917358316
  C        37.8714976097       29.4962766573       13.4081279229
  C        35.7126915523       27.6841432542       10.8815307641
  C        35.7429184977       27.7016382205        9.4599963849
  C        36.4446247928       28.7075795176        8.7236074254
  C        25.6910176458        8.6171635489        8.7351901876
  C        25.6730050633        8.6307307686       11.5471814334
  C        38.3284360723       31.9622507614        2.1613440890
  C        37.6059357466       30.8903671159        2.9031685027
  C        36.6757618119       31.2007801367        3.9070600798
  C        36.0639347838       30.1835425401        4.6367205570
  C        36.3682441364       28.8304760191        4.3863905145
  C        37.2761859106       28.5301224003        3.3524031348
  C        37.8899517472       29.5437701026        2.6237523742
  C        35.7593213188       27.7320765371        5.1704816553
  C        35.7666660964       27.7263362538        6.5925768217
  C        36.4556602344       28.7196400167        7.3570209642
  C        46.1357785327       26.6209246817        7.2865251149
  C        46.0877098839       26.5800393736        4.4786305930
  C        22.4631605016        3.2554179549        2.2603915568
  C        23.1635625395        4.3640599548        2.9780137845
  C        24.1727728062        4.0773544245        3.9109320543
  C        24.8059819333        5.1071987704        4.6026884991
  C        24.4496878552        6.4529690723        4.3842916148
  C        23.4641625751        6.7331454859        3.4190659686
  C        22.8267371919        5.7035403326        2.7273624256
  C        25.0802816126        7.5501383309        5.1603656586
  C        25.0645961706        7.5435583590        6.5828903089
  C        24.3673509024        6.5454701869        7.3344484991
  C        26.6105257132       17.8564939154       13.7825977224
  C        25.3040982326       17.9025816611       13.0592809774
  C        25.0399322531       18.9063593017       12.1136684733
  C        23.8289900008       18.9239693735       11.4244296875
  C        22.8447485920       17.9427134575       11.6605429664
  C        23.1041424080       16.9624964468       12.6372214377
  C        24.3176758551       16.9382496628       13.3229463607
  C        21.5729396194       17.9289445617       10.8942689973
  C        21.5750330520       17.9126303345        9.4717982677
  C        22.7816893370       17.7931500505        8.7124856311
  C        34.4344038551       17.1975014278       13.9109888662
  C        35.7268401340       17.1436888843       13.1677611824
  C        35.9329415144       16.1709921482       12.1769949189
  C        37.1134601368       16.1560925992       11.4396860330
  C        38.1212153836       17.1119408694       11.6735438639
  C        37.9184165510       18.0647013941       12.6901409267
  C        36.7347486471       18.0855532199       13.4242876698
  C        39.3746544053       17.1180818935       10.8847933548
  C        39.3668990873       17.1236270824        9.4627059480
  C        38.1581103503       17.2449414933        8.7074301787
  C        20.3291430272       17.9312892901        8.7619817771
  C        20.3477789269       17.9295636036       11.5755286337
  C        34.4381744148       17.2376956536        2.1956065427
  C        35.7388478973       17.1365038776        2.9176255768
  C        35.9417481722       16.1609725834        3.9051381150
  C        37.1324046471       16.1304063192        4.6271158804
  C        38.1493301072       17.0740430414        4.3818488865
  C        37.9525185945       18.0219318057        3.3600075389
  C        36.7613581141       18.0578270278        2.6414516380
  C        39.3991919733       17.0904939460        5.1744476578
  C        39.3794695081       17.1098763374        6.5960675599
  C        38.1642708238       17.2366354348        7.3406883033
  C        35.1393920597       26.6447270968        7.2956721195
  C        35.1721760653       26.6602612904        4.4864910979
  C        26.5720890393       17.8280106160        2.3295389200
  C        25.2575960096       17.8721689369        3.0370576068
  C        24.9930835616       18.8780490562        3.9787116195
  C        23.7755062855       18.9038915014        4.6529462420
  C        22.7928345493       17.9237408981        4.4088593749
  C        23.0517119362       16.9423449930        3.4349651982
  C        24.2702114413       16.9145110189        2.7591308412
  C        21.5290127298       17.9063687967        5.1815466412
  C        21.5521641210       17.8989778900        6.6031254175
  C        22.7702876260       17.7861018503        7.3461534363
  C        14.0464694292       17.8289950788        2.2936966124
  C        15.3513848674       17.8865251118        3.0186842031
  C        15.6086459660       18.8908366086        3.9649028885
  C        16.8178203732       18.9120704841        4.6575359926
  C        17.8038985052       17.9317797445        4.4260433803
  C        17.5515074894       16.9517606364        3.4475243884
  C        16.3417746703       16.9259861273        2.7564920080
  C        19.0727649405       17.9147294996        5.1955253152
  C        19.0706716157       17.9122520472        6.6179960787
  C        17.8629932370       17.8139181682        7.3782429723
  C        46.8018699759       17.2163903448        2.1625834539
  C        45.5086274719       17.1464289856        2.9033094192
  C        45.3039011360       16.1636097843        3.8844531160
  C        44.1199670497       16.1359638816        4.6169876055
  C        43.1090171041       17.0908417324        4.3916197923
  C        43.3104073908       18.0522986832        3.3825294252
  C        44.4952525065       18.0839169816        2.6506636399
  C        41.8556735381       17.0954640346        5.1819450622
  C        41.8642020056       17.0997193552        6.6043369889
  C        43.0745011710       17.1977450449        7.3605429974
  C        20.3169913981       17.9234069682        7.3271485008
  C        20.2973902760       17.8944148983        4.5141659357
  C        46.7845789127       17.2321160843       13.8814811210
  C        45.4828892161       17.1274885206       13.1624076089
  C        45.2650082683       16.1285063626       12.2011843124
  C        44.0774798335       16.1005488355       11.4738690597
  C        43.0772125561       17.0686914022       11.6894619905
  C        43.2862537387       18.0384241840       12.6881352998
  C        44.4746777500       18.0725510514       13.4110001811
  C        41.8294884492       17.0877885295       10.8938000724
  C        41.8509524638       17.0946182028        9.4723512753
  C        43.0683156876       17.1923820923        8.7273917760
  C        46.1534893039       26.6373328998        8.7210668676
  C        46.1620300104       26.6559017190       11.5307140811
  C        14.0443728541       17.8309565359       13.7035054678
  C        15.3646910379       17.9035769178       13.0116790152
  C        15.6392587073       18.9204722957       12.0852231698
  C        16.8679094410       18.9566890113       11.4298221741
  C        17.8488992007       17.9750469257       11.6754770673
  C        17.5809714303       16.9864971784       12.6396677103
  C        16.3544294709       16.9499187623       13.2986534551
  C        19.1162149403       17.9502106662       10.9072424034
  C        19.0934510620       17.9294622963        9.4857959213
  C        17.8740539980       17.8216927163        8.7442419705
  C        28.7957093803       14.1158375101        2.4013705164
  C        28.1943919717       12.9380202396        3.0906895173
  C        28.9219069252       12.1983753028        4.0345513630
  C        28.3296530414       11.1159548755        4.6810877229
  C        26.9958360382       10.7499322849        4.4084741093
  C        26.2905123071       11.4705878233        3.4280735442
  C        26.8805843066       12.5520308938        2.7794302922
  C        26.3300985851        9.6644896739        5.1651861684
  C        26.3096797941        9.6900905807        6.5859824795
  C        26.8076285945       10.8034201621        7.3347163204
  C        32.1796764533       21.2395168023        2.1517375086
  C        32.7739024584       22.4062063227        2.8684547170
  C        32.0270309471       23.0826042902        3.8452760366
  C        32.5979470994       24.1220890911        4.5728989565
  C        33.9313187196       24.5134365577        4.3445144699
  C        34.6603293055       23.8562827503        3.3355250254
  C        34.0919963693       22.8110013799        2.6099098612
  C        34.5596236357       25.5888513071        5.1452501761
  C        34.5524008143       25.5588477423        6.5669388627
  C        34.0515142365       24.4393479179        7.3035347283
  C        25.6960901336        8.6118046990        7.3008642682
  C        25.6985479992        8.6129518546        4.4879210108
  C        32.1177226205       21.1930779689       13.8413196265
  C        32.7021399816       22.3519611591       13.1058580854
  C        31.9707376120       23.0051001269       12.1020513794
  C        32.5455880256       24.0460366001       11.3773641027
  C        33.8670758860       24.4608566984       11.6351436650
  C        34.5802908204       23.8212356491       12.6669979849
  C        34.0089176755       22.7775201362       13.3899401364
  C        34.5050069145       25.5460040890       10.8550425943
  C        34.5240264971       25.5370041448        9.4329636698
  C        34.0376691216       24.4288151993        8.6701191896
  C        40.6119068819       17.0920460788        8.7512048278
  C        40.5998096417       17.1169144729       11.5615027544
  C        28.7332686549       14.0678078849       13.7874695210
  C        28.1166043839       12.9197284796       13.0593531347
  C        28.8541370603       12.2071024946       12.1011223394
  C        28.2691052237       11.1513254337       11.4072305321
  C        26.9306683687       10.7812644521       11.6469204769
  C        26.2106328019       11.4786193464       12.6348329301
  C        26.7941631664       12.5355959265       13.3308438253
  C        26.2885921639        9.6925210461       10.8729947763
  C        26.2890348432        9.7051807044        9.4514836259
  C        26.7958432438       10.8118686700        8.7003459974
  C        18.1353082520        3.1808361976        2.3222543420
  C        17.4058698324        4.2781202020        3.0208001779
  C        16.3905135697        3.9997074305        3.9486861427
  C        15.7427447426        5.0396622637        4.6122000792
  C        16.0942698284        6.3834193338        4.3721712815
  C        17.0831846430        6.6529852104        3.4079350481
  C        17.7323053112        5.6156650951        2.7428748313
  C        15.4700200106        7.4911494280        5.1352210463
  C        15.4855462774        7.4906118838        6.5569340039
  C        16.1871926214        6.4970646125        7.3101137724
  C        42.9458518847       31.8593973776        2.0779756978
  C        43.6461886719       30.7717838211        2.8218974812
  C        44.5919935841       31.0930780958        3.8077297891
  C        45.1976935168       30.0875210315        4.5553585349
  C        44.8709820533       28.7344833563        4.3407266972
  C        43.9448308981       28.4201562967        3.3278148141
  C        43.3360204267       29.4253146896        2.5797936600
  C        45.4886496521       27.6552342835        5.1439099000
  C        45.4930008298       27.6809935803        6.5655943975
  C        44.8059216071       28.6890570373        7.3121964777
  C        14.8566549616        8.5631487442        7.2693030644
  C        14.8746156901        8.5628617535        4.4566421891
  C        42.9464284082       31.9614016177       13.8038357895
  C        43.6915745223       30.8853450663       13.0903322226
  C        44.6563981399       31.1912468439       12.1182386225
  C        45.2778795481       30.1716567387       11.4005075602
  C        44.9538101123       28.8213508888       11.6378795653
  C        44.0199995703       28.5236796685       12.6483516326
  C        43.3917734429       29.5404509293       13.3605461965
  C        45.5629414457       27.7240012532       10.8526438573
  C        45.5334689464       27.7174625794        9.4313452743
  C        44.8271669868       28.7076938210        8.6783793290
  C        35.1260780878       26.6329335478        8.7304759679
  C        35.1110810397       26.6059678524       11.5403358322
  C        18.1485013820        3.2468306383       13.7015662530
  C        17.4298506455        4.3437478558       12.9922971872
  C        16.4149360435        4.0524831581       12.0684210018
  C        15.7666290055        5.0831197373       11.3930140806
  C        16.1210136998        6.4283776311       11.6160060751
  C        17.1120406852        6.7117488944       12.5736341697
  C        17.7596887221        5.6828290553       13.2534156807
  C        15.4905968862        7.5241160873       10.8435589527
  C        15.4966602159        7.5075898547        9.4224223720
  C        16.1934554427        6.5059132118        8.6757184182
  H        10.6725673936       12.4663107532       11.8989926544
  H        11.6947387876       10.5514800557       10.6570819554
  H        15.3912611756       11.1679188424       12.7678290372
  H        14.3507485699       13.0707544367       14.0131129993
  H        13.3762897449       11.6312667097        9.1961814370
  H        50.3226285053       22.7487472088       11.9822100772
  H        49.3194308979       24.6231193402       10.6760671793
  H        45.6414533770       24.1604188388       12.8579283981
  H        46.6623473519       22.2896706367       14.1662936636
  H        47.6296917811       23.5758416143        9.2410145650
  H        14.8717281695        8.5880925657       12.6034325175
  H        50.2872120452       22.7030591911        4.0649707974
  H        49.2691624827       24.5759153345        5.3650121867
  H        45.6100137784       24.1083799415        3.1517951374
  H        46.6520758675       22.2531414530        1.8375739337
  H        47.6077739764       23.5518424246        6.8018952006
  H        40.6328950587       17.0666434982        3.4188147559
  H        48.6869322329       14.0950174424       15.7948393727
  H        10.6812756328       12.4669078869        4.0986368359
  H        11.6894672608       10.5249508599        5.3023805602
  H        15.3931021211       11.1583522868        3.2101937403
  H        14.3645871042       13.0868587432        1.9948735473
  H        13.3758672516       11.6221837460        6.7581674842
  H        47.9299697870       14.2186308403        1.7157661964
  H        47.7799293417       14.3736753536       14.4900008785
  H        49.0821764182       18.5518185857        2.8720171918
  H        10.4155576332       14.1344221244        0.0038395797
  H        24.4776259395        3.0297097266       11.9069629843
  H        25.6095869239        4.8905726307       10.6743190678
  H        23.2217956188        7.7529982295       12.8202280740
  H        22.1093752457        5.8824049492       14.0552519523
  H        23.8059485864        5.7881644788        9.2380522793
  H        36.3690338504       32.1876971519       11.9686094076
  H        35.2400991901       30.3646640697       10.6913578266
  H        37.5088725369       27.4387741005       12.8805557028
  H        38.6171613417       29.2743052546       14.1678718571
  H        37.0066503605       29.4592499017        9.2701623260
  H        25.7012816483        8.6137918841       12.6351807800
  H        36.4530444186       32.2453341769        4.1126812148
  H        35.3369426916       30.4296452371        5.4075092119
  H        37.5228970154       27.4894861314        3.1525658370
  H        38.6131875601       29.3167018867        1.8443260115
  H        37.0272862405       29.4800928615        6.8328528700
  H        46.1088009756       26.5872337531        3.3905888699
  H        44.6680510733       35.1160143626       15.8088854704
  H        24.4509374737        3.0388841475        4.0759894056
  H        25.5912268799        4.8779575448        5.3199529994
  H        23.1775714973        7.7677416853        3.2416494859
  H        22.0497684980        5.9167209048        1.9968190186
  H        23.8022516140        5.7879936581        6.7991188014
  H        44.9530734091       34.3896359600        1.6997938601
  H        44.9011699569       34.2065671302       14.4855225081
  H        40.6653574630       33.2083867409        2.8578994323
  H        23.1504344296        1.9573830890        0.0093605224
  H        25.7939501519       19.6698781262       11.9358533497
  H        23.6290062738       19.7078333766       10.6969833707
  H        22.3553451503       16.1965786426       12.8287940449
  H        24.5288547976       16.1677895289       14.0609192578
  H        23.7224400146       17.6753338192        9.2425101812
  H        35.1503371516       15.4387239514       11.9937505120
  H        37.2710476787       15.3954576173       10.6782134414
  H        38.6877702470       18.8115997891       12.8747928822
  H        36.5619080526       18.8365821455       14.1916468713
  H        37.2197993725       17.3783173632        9.2385794190
  H        20.3532838392       17.9662169442       12.6635127033
  H        35.1483028527       15.4449255572        4.1061631652
  H        37.2869513952       15.3716491973        5.3910753172
  H        38.7301441155       18.7573895013        3.1646117592
  H        36.5896024457       18.8091313516        1.8745106694
  H        37.2304174387       17.3631319046        6.8004315631
  H        35.1452796452       26.6864913549        3.3987825516
  H        28.5100136364       21.0900077459       15.8915693275
  H        25.7545071243       19.6323682347        4.1633707378
  H        23.5697783460       19.6886318251        5.3777466514
  H        22.3011987490       16.1787985248        3.2407657869
  H        24.4860508271       16.1454737537        2.0212606024
  H        23.7022523316       17.6631689790        6.8025265047
  H        29.0093411167       21.7223957801        1.7481286065
  H        29.1608979402       21.7459509826       14.5498962937
  H        32.0699743311       18.5571327291        3.0076933843
  H        27.4078444067       19.0826112431        0.0927180130
  H        14.8504351671       19.6502953539        4.1423596128
  H        17.0134124832       19.6970830816        5.3848888483
  H        18.3023221819       16.1869031886        3.2598100849
  H        16.1352669112       16.1560467930        2.0168700486
  H        16.9208515709       17.6992780959        6.8501173592
  H        46.0901397891       15.4348518625        4.0669863427
  H        43.9638997872       15.3663418547        5.3697601986
  H        42.5386501265       18.7978940894        3.2026525391
  H        44.6653236652       18.8414049156        1.8890548428
  H        44.0152538682       17.3092442208        6.8290642217
  H        20.2920721993       17.9231401404        3.4260020194
  H        46.0416965656       15.3875488132       12.0260093091
  H        43.9118630836       15.3243220126       10.7299324023
  H        42.5198276865       18.7909432977       12.8616301363
  H        44.6557238577       18.8400714762       14.1594909853
  H        44.0044723334       17.2986503054        9.2678565536
  H        46.1985384754       26.6822652293       12.6181749886
  H        52.7409758583       21.0625574691        0.1997548337
  H        14.8800016887       19.6760366490       11.8956725951
  H        17.0806040188       19.7482390544       10.7144760764
  H        18.3299903609       16.2221686343       12.8363030841
  H        16.1316123557       16.1743432107       14.0273583169
  H        16.9402468830       17.7130441276        9.2876401008
  H        52.3218314202       21.6731114692       14.2894442798
  H        52.0128503444       21.7018026420        1.5007218338
  H        49.0668053647       18.6077821399       13.1991924862
  H        13.2471378080       19.0165687185       15.9721091784
  H        29.9497839790       12.4844529008        4.2461909442
  H        28.8956036228       10.5405402588        5.4105422377
  H        25.2598935187       11.1981490494        3.2101056707
  H        26.3336833076       13.1288202532        2.0376551036
  H        27.1733977265       11.6722573457        6.7959921867
  H        31.0032703976       22.7666583464        4.0300513133
  H        32.0145363414       24.6448495544        5.3276179254
  H        35.6924376862       24.1489691313        3.1538056532
  H        34.6610381479       22.2776448725        1.8519395647
  H        33.7043089033       23.5670235341        6.7571115021
  H        25.7327250295        8.5948027267        3.4000027534
  H        30.9546960388       22.6759112709       11.8973372235
  H        31.9719809805       24.5541781533       10.6053777244
  H        35.6033943570       24.1299163198       12.8714193482
  H        34.5650263924       22.2619769430       14.1693897449
  H        33.6808593958       23.5474051983        9.1955103228
  H        40.5950676151       17.0850153340       12.6493839773
  H        32.5083835108       14.1522744947        0.2644776561
  H        29.8887974917       12.4905284078       11.9221121220
  H        28.8475968185       10.5941133165       10.6735346905
  H        25.1754973194       11.2037455931       12.8269396232
  H        26.2357115649       13.0904139149       14.0811737617
  H        27.1513592987       11.6873598988        9.2357993889
  H        33.2955412403       14.1987531924       14.4366616632
  H        33.4029706437       14.4137249675        1.6097480001
  H        32.1276395683       18.5234768906       13.1623997370
  H        30.2141113759       14.1869119793        0.0845231102
  H        16.1187607575        2.9631675673        4.1353600868
  H        14.9535432199        4.8202063901        5.3281134846
  H        17.3651739301        7.6859088527        3.2144348649
  H        18.5139292755        5.8183034931        2.0145802446
  H        16.7536753232        5.7396705933        6.7766122372
  H        44.8284525940       32.1401387241        3.9817713485
  H        45.9377118931       30.3411992302        5.3111746984
  H        43.6817455554       27.3781361432        3.1579983814
  H        42.5991007880       29.1899323673        1.8154347608
  H        44.2304152056       29.4367054015        6.7738907594
  H        14.8505758051        8.5459378593        3.3684292963
  H        44.9001260186       32.2339143334       11.9269689124
  H        46.0249206456       30.4128287262       10.6473897842
  H        43.7626411037       27.4839857642       12.8395870688
  H        42.6449859052       29.3175900340       14.1186898824
  H        44.2684922107       29.4704687880        9.2129487365
  H        35.0679060659       26.6170480914       12.6278080128
  H        36.6049594940       35.1339673351        0.1857245295
  H        16.1440556906        3.0128834053       11.8984881521
  H        14.9744968997        4.8562370049       10.6827243120
  H        17.3952134143        7.7472519336       12.7508450571
  H        18.5422076279        5.8932370939       13.9785763771
  H        16.7648433186        5.7556407965        9.2141598322
  H        36.2785848798       34.4821293739       14.2683040170
  H        36.3806171540       34.2092495264        1.5049143325
  H        40.5794395488       33.2017008544       13.1487937308
  H        17.4706174570        1.9469020661       15.9689470481
  H        29.0455880029       19.3792523127        4.5128996035
  H        28.7372271642       18.5589609569       11.8987644410
  H        30.3841918863       15.6868911736       11.9120449367
  H        31.1682468290       15.6333673850        4.5540183235
  H        28.1187641885       17.7006491336        6.6570392857
  H        29.1900822582       15.6498464896        6.5751863823
  H        30.0849912857       19.8531064439       10.1325282096
  H        32.1128399641       16.1854709285       10.1245755262
  H        18.8529469382        0.8688121146        4.3403937308
  H        40.5279663972       35.2291003248       11.9470800719
  H        42.3230452879       34.4179089866       11.5860078345
  H        22.0877831545        0.6921135144        4.3566774242
  H        11.5970197091       18.7128614976        4.3873933536
  H        52.2649549840       18.4311475795       11.6725258303
  H        49.2556211378       16.4771827668       11.5793851982
  H        10.1502648774       15.7982390154        4.2977737756
  H        50.8500405300       17.6923487320       11.9492474562
  H        10.0459305313       17.3945627550        4.0570898700
  H        20.2139242973        0.0020237236        4.0472481327
  H        39.1835004930       36.1243107564       11.6812661975
 Ni        30.7733861197       17.8205838225       10.9106879733
 Ni        30.7811525235       16.5409322103        8.1598323074
 Ni        29.7547610153       18.6606809048        8.0800379949
 Ni        29.9730775999       17.4467205509        5.2459500510
  O        10.6499269021       14.3651030273       13.4807049344
  O        12.6131705253       14.6575333464       14.5788220143
  O        49.1477214589       16.8460181263       15.9846687372
  O        50.3500678947       20.9361269031       13.6431471703
  O        48.3484835143       20.5932399298       14.6609265001
  O        11.0513500620       17.0540369012       14.4955074949
  O        50.3209860492       20.8816762525        2.4119040334
  O        48.3467216351       20.5867320965        1.3322074429
  O        49.5434529749       18.2484278246        2.0733950318
  O        12.3588138334       18.6245562655        0.0048547303
  O        48.6931646973       14.1486353425       14.7461478544
  O         8.2098210737       14.2104177287        1.3276898654
  O        10.7352976997       14.5067293798        2.6694601209
  O        12.5717912249       14.5828130558        1.3336032830
  O        22.8443218504        2.0428058910       13.4820680416
  O        21.6048863117        3.5919497892       14.5849695795
  O        42.0580338372       34.1371042578       15.9738996138
  O        37.9814989666       33.1373812912       13.5675725844
  O        39.2179886817       31.5759632261       14.6613710270
  O        20.3082780627        1.0393718595       14.4968742699
  O        38.0248885267       33.1863925104        2.4199791266
  O        39.2190825029       31.5838229693        1.3316354821
  O        40.6522838568       33.7692681428        2.0653953856
  O        18.2554254373        1.3759098475        0.0019399991
  O        44.6222035229       35.1005180167       14.7536385847
  O        24.2054055705       -0.0000299554        1.3259444397
  O        22.7531561973        2.0576013070        2.5887766793
  O        21.6245941117        3.5962009147        1.3478765385
  O        27.4895730754       18.7477479191       13.4904300524
  O        26.7600569304       16.9328756103       14.6510106562
  O        30.6667535020       19.4089615588        0.0714399054
  O        33.5746086326       16.2825544815       13.6571865518
  O        34.2732255809       18.1659525667       14.7325313063
  O        29.5702426013       17.0621847416       14.5776157059
  O        33.5505361494       16.3399215227        2.4232385397
  O        34.2994328748       18.2375535582        1.4128111203
  O        31.6483838554       18.3174185180        2.1647853605
  O        30.3183254948       15.1526368607        0.0884580917
  O        28.5552937459       21.0372163458       14.8341192688
  O        28.5149576706       20.9561511906        1.4101672957
  O        27.4570878093       18.6807964694        2.6630212310
  O        26.6943447805       16.9298111218        1.4176104290
  O        13.1488275487       18.6930155661        2.5925892833
  O        13.9194968614       16.9162300395        1.4101837849
  O        50.5956575491       19.3501478013        0.0256924662
  O        47.6826239046       16.3271355087        2.4223687203
  O        46.9503231255       18.1755403340        1.3306868763
  O        11.0693929051       17.0156875797        1.4948358000
  O        47.6756315093       16.3358910683       13.6476963984
  O        46.9261007679       18.2357217642       14.6586621537
  O        49.5683336120       18.3177039725       13.9771695671
  O        10.3185145121       15.1002999376        0.0022110558
  O        52.6707386811       21.0279180989        1.2469388741
  O        12.1468110124       20.8911845475       14.6680823997
  O        13.1079207423       18.6137115073       13.3205650095
  O        13.9569057501       16.9868221756       14.6605090731
  O        29.9662948095       14.4994368764        2.7444841019
  O        28.0813317083       14.6566280101        1.4914430163
  O        32.0782012581       16.8676338649        0.0876682633
  O        30.9643032269       20.9510302085        2.4156240875
  O        32.9458985207       20.6012152103        1.3444804220
  O        29.5613058346       17.0816646261        1.5785873963
  O        30.9033628114       20.8738110509       13.5798064734
  O        32.8787003234       20.5844361212       14.6631492753
  O        31.6832034044       18.2510109532       13.9846423010
  O        28.2915183234       18.6801501991        0.0792472178
  O        32.4882354413       14.2154794123        1.3376682707
  O        32.4022973561       14.2145945941       14.8185850407
  O        29.9030882236       14.4423255933       13.4197670163
  O        28.0480232108       14.5834216993       14.7375424729
  O        17.8891680316        1.9666074648        2.6679421052
  O        18.9562173603        3.5271387292        1.4131331496
  O        39.1687037503       34.1387735406        0.0022301995
  O        43.2802233138       33.0589323925        2.3367827929
  O        42.0345185894       31.5064389131        1.2466992765
  O        20.3175289572        1.0365230055        1.4855135434
  O        43.2760705728       33.1825313738       13.5698198102
  O        42.0052798531       31.5840880095       14.5778920841
  O        40.5789685875       33.7747856843       13.9306348473
  O        22.3671402826        1.3844405510        0.0031660606
  O        36.6726675163       35.0997887493        1.2383511516
  O        16.4454631978        0.0641822034       14.6631469277
  O        17.9364169128        2.0433526266       13.3212486810
  O        18.9189656595        3.5931383766       14.6608616955
  O        29.6544531230       18.8334760984       12.0912398466
  O        29.7798861412       18.9188826393        4.0638643078
  O        31.0979438036       16.3300720879       12.0918119594
  O        31.1773485383       16.4869523958        4.0809254330
  O        31.8238121085       16.9883251221        9.6463808964
  O        30.0805971381       16.0351787616        6.4877659189
  O        30.6287701939       19.1972721432        9.6533700192
  O        28.8465556144       18.3220479926        6.4719828484
  O        39.4567866522       35.2437733562       11.9968836057
  O        19.1408766662        0.0043373549        3.9957309121
  O        41.9695712676       35.1725830752       12.0820986967
  O        21.6913575848       -0.0692502477        3.9010038596
  O        51.3650929490       18.6143388945       12.0004133266
  O        10.7511363399       18.7472328221        3.9100387916
  O        50.0801243972       16.4128439048       12.0865788593
  O         9.5244019099       16.4830970243        3.9963016433
 Zr         9.2961139992       16.0529401705       14.1772265085
 Zr        49.8355090653       16.0069572459        1.7517010415
 Zr        22.0728908703        0.0289218910       14.1842597391
 Zr        42.4606226030       35.1527552929        1.8060553443
 Zr        29.6146124216       19.0897950443       14.2821132577
 Zr        29.5784783832       19.1807761384        1.8808381147
 Zr        11.0372884809       19.0521835979        1.8327798299
 Zr        11.0430143559       19.1550297226       14.2462700915
 Zr        31.3291847546       16.1151900500        1.9034140390
 Zr        31.3921599042       16.0176444535       14.2818489226
 Zr        18.6007292088       -0.0021405870        1.7684670493
 Zr        18.5061564823       -0.0084765461       14.2084455845
 Zr        12.3011080427       16.3236314805       15.9853028944
 Zr        48.6150187676       18.8328950394        0.0155528177
 Zr        20.3145352492        2.4723981320       15.9857548773
 Zr        40.6428526604       32.6861594327       15.9730912957
 Zr        28.3476215860       16.3459212036        0.0875800532
 Zr        32.6272947734       18.8412552435        0.0610189962
  H        29.3171946058       20.3869427185        7.8384535691
  H        28.6873842269       20.0968691353        8.2242605906
  H        31.6756693989       14.9792792529        8.0935124010
  H        31.0258062035       14.8268579060        8.5282096394
