     572
 i =      292, E =     -4746.7003911999
  C        11.8584492457       14.0536531079       13.7364829135
  C        12.4561544283       12.8906580750       13.0181137687
  C        11.7044148875       12.1715489101       12.0766787125
  C        12.2807940480       11.1094072469       11.3842354244
  C        13.6213887434       10.7397347104       11.6118791852
  C        14.3546750809       11.4434535040       12.5851310497
  C        13.7817282736       12.5083815021       13.2767177394
  C        14.2609590043        9.6490722677       10.8385117533
  C        14.2564427455        9.6570054230        9.4168120064
  C        13.7431328807       10.7590696376        8.6629144657
  C        49.1265740690       21.2333670581       13.8746543645
  C        48.5497870829       22.4012588993       13.1473171569
  C        49.3004699780       23.0695827347       12.1675225654
  C        48.7337151355       24.1088412864       11.4343342685
  C        47.4027091108       24.5095083590       11.6618596337
  C        46.6710256380       23.8595187478       12.6740797889
  C        47.2333047022       22.8144822062       13.4033860867
  C        46.7726881653       25.5873777541       10.8646111849
  C        46.7621714591       25.5580768250        9.4428565860
  C        47.2628905420       24.4433348312        8.6993784454
  C        14.8604561184        8.5706883965        8.7035798378
  C        14.8917419534        8.5971399297       11.5151665771
  C        49.1132098216       21.2033687775        2.1504529377
  C        48.5280369245       22.3648889516        2.8777182834
  C        49.2678345773       23.0262878510        3.8697242429
  C        48.6917633076       24.0610100401        4.6011774700
  C        47.3610470728       24.4572294289        4.3637570370
  C        46.6399972401       23.8115021886        3.3412286106
  C        47.2132794818       22.7753801127        2.6095262253
  C        46.7227874224       25.5323754922        5.1547332114
  C        46.7347475256       25.5289734900        6.5764228254
  C        47.2508203175       24.4300931317        7.3328384369
  C        40.6208195083       17.0677066165        7.3159614475
  C        40.6305626535       17.1719459340        4.4811188506
  C        11.8828506298       14.0866483005        2.2905260430
  C        12.4723129741       12.9107542592        2.9948350179
  C        11.7147163328       12.1773339988        3.9206591854
  C        12.2813482464       11.0949360710        4.5891511110
  C        13.6202558236       10.7214769637        4.3575778349
  C        14.3583861827       11.4373284340        3.3971371317
  C        13.7929025221       12.5184539071        2.7243824426
  C        14.2538991742        9.6247282569        5.1279779459
  C        14.2526632517        9.6446680619        6.5498095154
  C        13.7426342596       10.7535520389        7.2968700276
  C        22.5104259542        3.2444735956       13.7466992558
  C        23.2214959805        4.3499438140       13.0435877668
  C        24.2188443207        4.0701121070       12.0977793040
  C        24.8432708055        5.1095770913       11.4132295041
  C        24.4858750598        6.4510628858       11.6542525840
  C        23.5161061261        6.7225073379       12.6366376984
  C        22.8873242350        5.6848650252       13.3198269236
  C        25.0915812016        7.5575854839       10.8786217309
  C        25.0713489921        7.5484378683        9.4568696930
  C        24.3746784863        6.5471196453        8.7082828234
  C        38.3020748388       31.9296139507       13.8443916687
  C        37.5707883108       30.8406626276       13.1357240329
  C        36.6067819921       31.1455923713       12.1626140524
  C        35.9872883328       30.1262032281       11.4450970475
  C        36.3177409067       28.7769515185       11.6785224678
  C        37.2521838472       28.4793355802       12.6882242507
  C        37.8752925588       29.4974522368       13.4051043157
  C        35.7143680494       27.6863764538       10.8804797184
  C        35.7422553836       27.7045935405        9.4590254899
  C        36.4440263904       28.7101324639        8.7221288341
  C        25.6967561475        8.6181216171        8.7385818624
  C        25.6832801827        8.6347004389       11.5508357831
  C        38.3284982202       31.9627612788        2.1610822004
  C        37.6052514603       30.8909500762        2.9029001548
  C        36.6739085537       31.2022436874        3.9053164211
  C        36.0609968717       30.1856228588        4.6349167206
  C        36.3654779890       28.8325044575        4.3855802895
  C        37.2748179685       28.5311268700        3.3532400579
  C        37.8896560138       29.5442814904        2.6247026653
  C        35.7553776188       27.7348350487        5.1698480626
  C        35.7633136874       27.7293057571        6.5918585998
  C        36.4539053694       28.7220449646        7.3555887436
  C        46.1363952316       26.6214390081        7.2865230745
  C        46.0885820604       26.5805332526        4.4786397766
  C        22.4629112776        3.2555198653        2.2613363939
  C        23.1622124086        4.3636252104        2.9806042599
  C        24.1694948949        4.0762385843        3.9154879042
  C        24.8020181096        5.1054951975        4.6087395688
  C        24.4472919488        6.4516529813        4.3898238227
  C        23.4635814896        6.7324305519        3.4227777772
  C        22.8266686859        5.7034210540        2.7297332089
  C        25.0789902498        7.5488215309        5.1650273768
  C        25.0661052923        7.5430410388        6.5877262569
  C        24.3701917443        6.5457623865        7.3416030905
  C        26.6173504140       17.8620244279       13.7805506271
  C        25.3093565760       17.9034670191       13.0558014929
  C        25.0413834376       18.9067319732       12.1110722527
  C        23.8293986218       18.9235374430       11.4233869116
  C        22.8468158722       17.9408499904       11.6600996673
  C        23.1095458424       16.9603781387       12.6353826337
  C        24.3244673211       16.9378245938       13.3195266257
  C        21.5739834867       17.9262295081       10.8949343465
  C        21.5750547442       17.9084051161        9.4724543454
  C        22.7814524013       17.7881064574        8.7129049112
  C        34.4433252316       17.1916397103       13.9223099030
  C        35.7409971412       17.1370665566       13.1931738559
  C        35.9261189172       16.2153720044       12.1491732429
  C        37.1006794359       16.2194288322       11.4066157661
  C        38.1388451916       17.1321734205       11.6985388440
  C        37.9600321245       18.0211348273       12.7816186841
  C        36.7747255425       18.0335336411       13.5083490629
  C        39.3803846738       17.1635139448       10.9167531355
  C        39.3701082760       17.1330506715        9.4605681647
  C        38.1871527862       17.2795213743        8.7237174834
  C        20.3290876296       17.9269011492        8.7628033808
  C        20.3489034840       17.9278700950       11.5763251266
  C        34.4431415216       17.2323706043        2.1870206666
  C        35.7483496555       17.1209611945        2.8927813782
  C        35.9235350424       16.2027476615        3.9404913098
  C        37.1089990549       16.1861568995        4.6666966130
  C        38.1625512107       17.0758574867        4.3567982727
  C        37.9957937637       17.9507716760        3.2605343183
  C        36.8030775507       17.9832298448        2.5497518273
  C        39.4002127719       17.1178391871        5.1420437948
  C        39.3800198055       17.1116685358        6.5979865259
  C        38.1918976340       17.2678628551        7.3257456300
  C        35.1347383901       26.6487633278        7.2953861898
  C        35.1667719541       26.6636291354        4.4863446723
  C        26.5698386129       17.8272035133        2.3294262197
  C        25.2552878517       17.8708039817        3.0365842446
  C        24.9928409925       18.8735608943        3.9822404396
  C        23.7754000795       18.8986222869        4.6566685639
  C        22.7913285668       17.9206754248        4.4090858884
  C        23.0482174154       16.9428277723        3.4310596218
  C        24.2663838294       16.9158673451        2.7546851489
  C        21.5279446525       17.9022065185        5.1821112663
  C        21.5514976731       17.8937640768        6.6036807778
  C        22.7696838200       17.7802509157        7.3465892187
  C        14.0463198425       17.8287560401        2.2938598579
  C        15.3509445508       17.8855094756        3.0191322425
  C        15.6080791752       18.8886919127        3.9665742071
  C        16.8170037753       18.9088632426        4.6596198912
  C        17.8030243421       17.9287336781        4.4271937841
  C        17.5507177503       16.9498091868        3.4475453483
  C        16.3412387102       16.9250714375        2.7561091214
  C        19.0718094023       17.9107217923        5.1966296894
  C        19.0700154788       17.9076812570        6.6190846468
  C        17.8625441591       17.8092264071        7.3796405579
  C        46.8020004114       17.2129191845        2.1572395894
  C        45.5059947078       17.1377729237        2.8852243296
  C        45.3266475083       16.2111337480        3.9258809560
  C        44.1464453200       16.1980857302        4.6601777852
  C        43.0991388325       17.1003090554        4.3670430690
  C        43.2725663106       17.9920717614        3.2851183606
  C        44.4609745541       18.0197335192        2.5644033286
  C        41.8567431649       17.1274592890        5.1486134951
  C        41.8667180042       17.1064703902        6.6050198498
  C        43.0511520754       17.2432036870        7.3418435203
  C        20.3165074556       17.9184203005        7.3279727376
  C        20.2962109250       17.8908531366        4.5149641153
  C        46.7850437369       17.2286405376       13.8867560207
  C        45.4820175854       17.1194229119       13.1808279926
  C        45.2907509360       16.1815581678       12.1524324199
  C        44.1088767331       16.1736632096       11.4207843419
  C        43.0705288002       17.0879394679       11.7103177612
  C        43.2496261572       17.9802166092       12.7907699651
  C        44.4406499433       18.0065710630       13.5034954817
  C        41.8351446992       17.1351170062       10.9236629297
  C        41.8556559652       17.1097366379        9.4680954329
  C        43.0456865545       17.2426182399        8.7395884723
  C        46.1539608522       26.6378171618        8.7210718112
  C        46.1624344715       26.6562979556       11.5307149768
  C        14.0446275708       17.8310338187       13.7035563883
  C        15.3650494144       17.9033734369       13.0120826969
  C        15.6396716856       18.9191202075       12.0843673105
  C        16.8685471803       18.9548081304       11.4293809683
  C        17.8498053726       17.9737604549       11.6765453109
  C        17.5818405686       16.9864963228       12.6420505059
  C        16.3550573140       16.9503818360       13.3006037134
  C        19.1170578339       17.9479153725       10.9082642555
  C        19.0936219589       17.9258220018        9.4868627290
  C        17.8740312008       17.8174924452        8.7456283961
  C        28.7939733204       14.1143134952        2.4013482488
  C        28.1933803149       12.9352833134        3.0893463582
  C        28.9196820323       12.1984503456        4.0363260411
  C        28.3276382130       11.1158360834        4.6825737213
  C        26.9949646183       10.7473918405        4.4076601290
  C        26.2909847347       11.4651847556        3.4240615693
  C        26.8811026801       12.5463530819        2.7748721911
  C        26.3293467131        9.6630097405        5.1660725000
  C        26.3110284888        9.6896111475        6.5870392393
  C        26.8098500099       10.8036725583        7.3339943626
  C        32.1794839139       21.2414157721        2.1502214852
  C        32.7733082527       22.4083799020        2.8685081521
  C        32.0237851867       23.0843958062        3.8437199900
  C        32.5925995112       24.1248338643        4.5719593802
  C        33.9262720534       24.5166783067        4.3455046702
  C        34.6579846116       23.8589295543        3.3391059166
  C        34.0916439934       22.8129565722        2.6128145298
  C        34.5531636299       25.5931068561        5.1455834606
  C        34.5453541635       25.5639596593        6.5670734031
  C        34.0406556290       24.4464691078        7.3043978363
  C        25.6991207028        8.6116614789        7.3040101745
  C        25.6962342740        8.6111561744        4.4907785268
  C        32.1155811410       21.1996451577       13.8487075646
  C        32.7028309451       22.3583619499       13.1115457143
  C        31.9651376933       23.0237223628       12.1201772075
  C        32.5406859032       24.0619515892       11.3916741253
  C        33.8686496259       24.4641616580       11.6359901575
  C        34.5881940966       23.8136275340       12.6562923047
  C        34.0164821221       22.7709954701       13.3811669075
  C        34.5052625466       25.5496479828       10.8551770065
  C        34.5195240915       25.5425296066        9.4333591824
  C        34.0273322643       24.4367755400        8.6708911414
  C        40.6150650883       17.0742167024        8.7499906349
  C        40.6058721545       17.2082120321       11.5846200271
  C        28.7158913710       14.0930858873       13.7822070995
  C        28.1068459250       12.9431074733       13.0502688270
  C        28.8476290184       12.2346408822       12.0917387579
  C        28.2698464175       11.1713683027       11.4023958691
  C        26.9348387071       10.7906701588       11.6456500119
  C        26.2116593520       11.4850718203       12.6334519998
  C        26.7884320189       12.5479865182       13.3259746718
  C        26.2968722376        9.6968173964       10.8746671868
  C        26.2951903358        9.7073577075        9.4529332526
  C        26.7999161922       10.8134607463        8.6995903298
  C        18.1352976835        3.1810239371        2.3222322380
  C        17.4060091880        4.2782527796        3.0208097962
  C        16.3906172296        3.9998841457        3.9486989926
  C        15.7429888746        5.0398604413        4.6122805779
  C        16.0945213314        6.3836358059        4.3722268794
  C        17.0833949163        6.6531468647        3.4079193143
  C        17.7324139671        5.6158075639        2.7427847855
  C        15.4703325890        7.4913738260        5.1352890277
  C        15.4856825647        7.4906930537        6.5569952040
  C        16.1874320689        6.4972068111        7.3101746350
  C        42.9458528954       31.8594992404        2.0780698519
  C        43.6463194126       30.7719364071        2.8219160445
  C        44.5916638611       31.0933528256        3.8081401759
  C        45.1975475582       30.0878672430        4.5556988754
  C        44.8715015239       28.7347319896        4.3406318429
  C        43.9458380449       28.4203089417        3.3272974677
  C        43.3368448467       29.4254008181        2.5793599123
  C        45.4891743902       27.6555602564        5.1438789831
  C        45.4934483981       27.6813815371        6.5655662767
  C        44.8059923439       28.6892082559        7.3121412672
  C        14.8567330085        8.5631909953        7.2693591761
  C        14.8750103412        8.5631413947        4.4567031285
  C        42.9464727848       31.9615968455       13.8038336787
  C        43.6917105798       30.8855587542       13.0904414710
  C        44.6560149725       31.1915205278       12.1178674440
  C        45.2774628639       30.1720015529       11.4000227363
  C        44.9541612436       28.8216062198       11.6379922301
  C        44.0209542857       28.5239036919       12.6490342700
  C        43.3927721497       29.5406113005       13.3613311833
  C        45.5631083539       27.7242746831       10.8526351713
  C        45.5336883622       27.7178161679        9.4313315088
  C        44.8271418857       28.7078557317        8.6783255387
  C        35.1227775325       26.6371388801        8.7300984678
  C        35.1140565938       26.6079987834       11.5400718054
  C        18.1484238881        3.2469672214       13.7015582617
  C        17.4298311988        4.3438246527       12.9923497771
  C        16.4149032762        4.0525957261       12.0684537548
  C        15.7666680348        5.0832627217       11.3930699732
  C        16.1210907308        6.4285159109       11.6160733558
  C        17.1120680233        6.7118587947       12.5737738123
  C        17.7596982275        5.6829182319       13.2535512768
  C        15.4906554743        7.5242235374       10.8436253955
  C        15.4967249242        7.5076356013        9.4224946483
  C        16.1936119868        6.5060208842        8.6757830668
  H        10.6722433789       12.4656411925       11.8998954206
  H        11.6944465819       10.5508237136       10.6578413752
  H        15.3917688850       11.1689704763       12.7667195094
  H        14.3511890590       13.0717733356       14.0120651864
  H        13.3758908478       11.6310761068        9.1962645123
  H        50.3235630501       22.7502337308       11.9837386200
  H        49.3206967883       24.6249672970       10.6777214475
  H        45.6411433801       24.1594912031       12.8562591493
  H        46.6617286942       22.2881158318       14.1642511762
  H        47.6319601723       23.5772538250        9.2411604796
  H        14.8719330934        8.5883730537       12.6034703952
  H        50.2881312108       22.7038329270        4.0639512209
  H        49.2705862899       24.5770496250        5.3639617711
  H        45.6103193362       24.1082208687        3.1529261853
  H        46.6519244300       22.2523306270        1.8389822971
  H        47.6102560626       23.5532983596        6.8018780712
  H        40.6339208174       17.1482177720        3.3930975802
  H        48.6862435160       14.0949242092       15.7945727229
  H        10.6811366028       12.4662179301        4.0977206819
  H        11.6894866454       10.5243710643        5.3016406115
  H        15.3939646175       11.1597538315        3.2115183963
  H        14.3652704397       13.0880966062        1.9960629110
  H        13.3756372307       11.6220615943        6.7581776318
  H        47.9303053072       14.2192881452        1.7165488054
  H        47.7805066599       14.3744890460       14.4886531983
  H        49.0813001688       18.5515147032        2.8713813239
  H        10.4154702509       14.1344110401        0.0035528212
  H        24.4826595606        3.0317274028       11.9098047168
  H        25.6175128820        4.8923129155       10.6806035676
  H        23.2325837323        7.7551881641       12.8290200000
  H        22.1168228604        5.8849305161       14.0604171033
  H        23.8119481002        5.7900382828        9.2466501628
  H        36.3678880613       32.1889718435       11.9707918517
  H        35.2392976565       30.3659073190       10.6925504538
  H        37.5147923900       27.4401475037       12.8751878393
  H        38.6222924257       29.2758547256       14.1636222771
  H        37.0071706748       29.4612027526        9.2683552638
  H        25.7127465172        8.6192722335       12.6388468692
  H        36.4512931463       32.2470057029        4.1099067594
  H        35.3332126624       30.4323268702        5.4047722675
  H        37.5218147925       27.4903323565        3.1545756749
  H        38.6140583075       29.3168133284        1.8464711414
  H        37.0256698644       29.4819206941        6.8307356398
  H        46.1097796762       26.5876279556        3.3906099392
  H        44.6680743477       35.1159940999       15.8089860233
  H        24.4471076326        3.0376421944        4.0806113440
  H        25.5860759558        4.8755352006        5.3270586957
  H        23.1781753809        7.7672513485        3.2447049063
  H        22.0513421771        5.9174159387        1.9976646669
  H        23.8034771937        5.7881509513        6.8081368903
  H        44.9535896386       34.3900742385        1.7000612593
  H        44.9017373488       34.2069078262       14.4853827180
  H        40.6658577399       33.2089410873        2.8581679722
  H        23.1506079004        1.9576001968        0.0096748482
  H        25.7938890248       19.6712203991       11.9320608958
  H        23.6275924813       19.7076715238       10.6966539169
  H        22.3623433513       16.1930646742       12.8278155562
  H        24.5378289045       16.1673948533       14.0569138509
  H        23.7220300294       17.6707916200        9.2433959160
  H        35.1271465083       15.5111662433       11.9293187572
  H        37.2382552091       15.5000347018       10.6027987542
  H        38.7468437685       18.7363318572       13.0118824947
  H        36.6167869274       18.7452677201       14.3154583293
  H        37.2483087342       17.4385582581        9.2459669453
  H        20.3547894839       17.9656610220       12.6642777038
  H        35.1077147558       15.5262362862        4.1852193791
  H        37.2385776454       15.4737495473        5.4779834324
  H        38.7955193850       18.6455689369        3.0133935770
  H        36.6512707734       18.6900861521        1.7375714248
  H        37.2564831999       17.4185289470        6.7952540596
  H        35.1400591982       26.6892969207        3.3986282191
  H        28.5046988446       21.0946408118       15.8990135533
  H        25.7555471807       19.6258631824        4.1703050656
  H        23.5711521079       19.6808915480        5.3845748362
  H        22.2963793808       16.1812885537        3.2340175683
  H        24.4807843987       16.1498199871        2.0132344427
  H        23.7014087968       17.6570035336        6.8026378220
  H        28.9968240629       21.7265259498        1.7557165050
  H        29.1798997095       21.7352697341       14.5611953853
  H        32.0959753943       18.5749148611        2.9915034340
  H        27.3976282347       19.0768264284        0.0902761263
  H        14.8500111575       19.6481607637        4.1445523958
  H        17.0126378265       19.6930305382        5.3878709421
  H        18.3015582676       16.1851456445        3.2590668911
  H        16.1348522255       16.1560702251        2.0154646583
  H        16.9202696586       17.6943823113        6.8517815826
  H        46.1335943854       15.5184786717        4.1533653739
  H        44.0139289246       15.4740589633        5.4606422927
  H        42.4790475146       18.6989671058        3.0524764180
  H        44.6130733750       18.7339091766        1.7584527650
  H        43.9918803799       17.3874622497        6.8191305111
  H        20.2907073288       17.9205714535        3.4268166053
  H        46.0880774990       15.4765783353       11.9283715986
  H        43.9681898714       15.4475058590       10.6236575628
  H        42.4608221302       18.6924799589       13.0228773497
  H        44.6020885243       18.7266108485       14.3019985752
  H        43.9827489561       17.3849539031        9.2693541970
  H        46.1989731328       26.6825690503       12.6181672540
  H        52.7410314266       21.0624585634        0.1997021152
  H        14.8802318372       19.6741471185       11.8934166419
  H        17.0812252280       19.7453779690       10.7129534555
  H        18.3310709349       16.2226948547       12.8399835676
  H        16.1322375995       16.1756268948       14.0301946103
  H        16.9403680158       17.7088232203        9.2892731192
  H        52.3216705327       21.6731221564       14.2895811166
  H        52.0125241114       21.7015422827        1.5004640575
  H        49.0653023352       18.6077095524       13.2003504176
  H        13.2474175749       19.0163409869       15.9721893543
  H        29.9457474528       12.4874505157        4.2525756456
  H        28.8928579857       10.5431491179        5.4147118751
  H        25.2612013418       11.1911138158        3.2041409115
  H        26.3351265244       13.1210324425        2.0307261402
  H        27.1750649704       11.6722089365        6.7943517667
  H        30.9989118531       22.7685014518        4.0240444675
  H        32.0067645069       24.6494321128        5.3236421390
  H        35.6902993907       24.1522168266        3.1595370199
  H        34.6621258592       22.2788205196        1.8564297676
  H        33.6893637657       23.5759069149        6.7575621548
  H        25.7287512954        8.5920714681        3.4028241538
  H        30.9412443575       22.7088044636       11.9315420411
  H        31.9621489790       24.5804050868       10.6300950591
  H        35.6158641544       24.1136300980       12.8506934363
  H        34.5769286444       22.2465290138       14.1516108538
  H        33.6668025043       23.5582468620        9.1983159759
  H        40.6020410579       17.1948252902       12.6728164658
  H        32.5149172738       14.1487922359        0.2705209874
  H        29.8797541630       12.5253968712       11.9091989268
  H        28.8518521755       10.6171191565       10.6692012861
  H        25.1790243356       11.2029269853       12.8284820679
  H        26.2276521969       13.0991143470       14.0773053163
  H        27.1561185913       11.6897845090        9.2331370844
  H        33.2896736936       14.1768281323       14.4235257736
  H        33.4027882091       14.4086665146        1.6184158148
  H        32.1870505591       18.5580622417       13.2200018975
  H        30.2214182338       14.1884306091        0.0905611270
  H        16.1187768510        2.9633723277        4.1353574500
  H        14.9538037670        4.8204819514        5.3282252896
  H        17.3654085447        7.6860626905        3.2143616992
  H        18.5140320564        5.8184855835        2.0144743939
  H        16.7540894036        5.7399245561        6.7766965219
  H        44.8277329250       32.1404479680        3.9824427570
  H        45.9373610357       30.3416604328        5.3116778653
  H        43.6835176745       27.3782017433        3.1569012746
  H        42.6004515333       29.1899342626        1.8145340462
  H        44.2304673497       29.4368197364        6.7738223292
  H        14.8511743665        8.5463833368        3.3684845171
  H        44.8992859526       32.2342191574       11.9262400889
  H        46.0241255651       30.4132634230       10.6465595736
  H        43.7643604375       27.4841408175       12.8408706279
  H        42.6466295890       29.3176952346       14.1200795222
  H        44.2683517399       29.4705953993        9.2128126411
  H        35.0741023537       26.6179001444       12.6276732096
  H        36.6050284218       35.1341109177        0.1856637069
  H        16.1439768045        3.0130219560       11.8985156463
  H        14.9745135979        4.8564716138       10.6827894547
  H        17.3952495010        7.7473587818       12.7510663477
  H        18.5422631569        5.8933755049       13.9786760920
  H        16.7651608959        5.7558670395        9.2142210388
  H        36.2784749420       34.4825508240       14.2680250798
  H        36.3807571369       34.2092869646        1.5047295054
  H        40.5803052985       33.2025220949       13.1484754934
  H        17.4708749579        1.9474875181       15.9691149073
  H        28.9749131237       19.3557539238        4.4666735325
  H        28.9857377186       19.3042665969       11.6500769738
  H        30.5263869859       15.6135782765       11.9600181666
  H        31.0486800547       15.5444392456        4.4884432183
  H        27.9582263713       17.8638064577        6.6441615627
  H        28.9714808244       15.6939875658        6.7089406348
  H        30.6964420650       20.1157587972        9.6093584777
  H        32.1294061924       16.0955800932       10.1212561054
  H        18.8533373917        0.8690356858        4.3403331131
  H        40.5279273342       35.2290580303       11.9469443619
  H        42.3242748140       34.4189881100       11.5854640755
  H        22.0877200202        0.6920313068        4.3567755937
  H        11.5972034111       18.7122253997        4.3869485124
  H        52.2651242276       18.4310355364       11.6728073073
  H        49.2539477692       16.4812413138       11.5820706584
  H        10.1508590541       15.7986374477        4.2968728416
  H        50.8502381322       17.6921953141       11.9496593130
  H        10.0455075025       17.3948340288        4.0568381222
  H        20.2144973361        0.0021779422        4.0471265085
  H        39.1835864690       36.1244503931       11.6813432220
 Ni        30.7803584188       17.8623397532       10.9911140429
 Ni        30.7361914002       16.5189692011        8.1542888350
 Ni        29.8413021017       18.6964335821        7.8287552811
 Ni        30.0999099862       17.5194632889        5.3297617492
  O        10.6498757847       14.3651843322       13.4805506286
  O        12.6131359798       14.6575066978       14.5787482408
  O        49.1478643900       16.8458751153       15.9846986732
  O        50.3501159127       20.9363409548       13.6430466029
  O        48.3485750285       20.5935189247       14.6608567021
  O        11.0513822963       17.0541185117       14.4955222413
  O        50.3211420315       20.8818235142        2.4119472414
  O        48.3467823407       20.5869715592        1.3322623684
  O        49.5436886455       18.2484796754        2.0733171270
  O        12.3589981839       18.6245912495        0.0048053942
  O        48.6931733288       14.1484054457       14.7460522302
  O         8.2098240523       14.2103260806        1.3277398263
  O        10.7353577841       14.5067447675        2.6695334275
  O        12.5718009857       14.5828120469        1.3336163079
  O        22.8447574709        2.0435876959       13.4820185961
  O        21.6053494514        3.5923330906       14.5846633425
  O        42.0582161690       34.1373503131       15.9738893569
  O        37.9815606068       33.1379403861       13.5675559408
  O        39.2180099820       31.5761027383       14.6614311466
  O        20.3084731287        1.0396804445       14.4969157052
  O        38.0249647546       33.1865739529        2.4199813052
  O        39.2189995134       31.5837249527        1.3316782328
  O        40.6523417979       33.7693847984        2.0653597674
  O        18.2554889705        1.3761787448        0.0019040820
  O        44.6221866210       35.1005885041       14.7537207839
  O        24.2054218759       -0.0000426292        1.3258970849
  O        22.7531100776        2.0574084189        2.5887871379
  O        21.6247849950        3.5962923943        1.3482374403
  O        27.4902708271       18.7546895529       13.4954118812
  O        26.7639190931       16.9331970181       14.6493481540
  O        30.6692754762       19.4110688337        0.0757824963
  O        33.5868565417       16.2784523222       13.6610279347
  O        34.2740130922       18.1695219523       14.7331360447
  O        29.5732323714       17.0641922226       14.5812189753
  O        33.5539217833       16.3404014754        2.4240537881
  O        34.3017052595       18.2404200259        1.4137334598
  O        31.6493500056       18.3170986307        2.1681097002
  O        30.3212083078       15.1546276575        0.0916851819
  O        28.5551722409       21.0399965107       14.8382587136
  O        28.5128312186       20.9586951080        1.4070102066
  O        27.4546946134       18.6798516621        2.6634203979
  O        26.6936118401       16.9292580694        1.4178829161
  O        13.1487423129       18.6929725438        2.5926154760
  O        13.9193692342       16.9161818058        1.4100980752
  O        50.5960272783       19.3502093521        0.0256107400
  O        47.6843252322       16.3263127311        2.4228332297
  O        46.9515086438       18.1753655864        1.3290420701
  O        11.0696588705       17.0156112903        1.4949053398
  O        47.6779649389       16.3349182543       13.6473105295
  O        46.9284405509       18.2353180825       14.6608669761
  O        49.5686497966       18.3178192347       13.9771972926
  O        10.3186407573       15.1002537804        0.0020851607
  O        52.6707624853       21.0279482302        1.2469233737
  O        12.1467945756       20.8912689927       14.6681247986
  O        13.1080083298       18.6136745377       13.3205419561
  O        13.9568571375       16.9867950201       14.6605218259
  O        29.9643524998       14.4988739979        2.7457272952
  O        28.0807448574       14.6561813349        1.4919910771
  O        32.1346008302       16.8625837855        0.0959057777
  O        30.9656934263       20.9537612691        2.4145014261
  O        32.9476523471       20.6020718329        1.3458377749
  O        29.5646560589       17.0815251762        1.5779732338
  O        30.9022019926       20.8845427128       13.5883764754
  O        32.8805681357       20.5845988227       14.6625461755
  O        31.6829815290       18.2517440392       13.9909665397
  O        28.2838240750       18.6800576550        0.0829478053
  O        32.4891511628       14.2143091639        1.3398738131
  O        32.4031594892       14.2095006915       14.8194641573
  O        29.8701468115       14.4990738709       13.4123265142
  O        28.0393400899       14.5858153321       14.7476045671
  O        17.8892673814        1.9666323552        2.6679312256
  O        18.9562371296        3.5271930534        1.4131158570
  O        39.1686556982       34.1388232428        0.0022524668
  O        43.2802083051       33.0589767004        2.3367641418
  O        42.0345304427       31.5064819319        1.2466946961
  O        20.3177150825        1.0367663134        1.4853586762
  O        43.2760697089       33.1826280971       13.5698443699
  O        42.0052759122       31.5841754646       14.5779166061
  O        40.5789854331       33.7749973847       13.9307557022
  O        22.3672825654        1.3846173143        0.0030441957
  O        36.6726626888       35.0998588228        1.2383161787
  O        16.4454896557        0.0642929079       14.6631803434
  O        17.9365080268        2.0433321129       13.3213121519
  O        18.9190111254        3.5931644358       14.6608310029
  O        29.7100390425       18.8956749813       12.1543393826
  O        29.7509099478       18.9690334387        4.0168342235
  O        31.2226594198       16.2688999985       12.1638385463
  O        31.2212749507       16.4157681742        4.0844218135
  O        31.7234244432       16.8553358839        9.6619630629
  O        29.9141120897       15.8972018035        6.5852974814
  O        30.3776134456       19.2053584834        9.4932680528
  O        28.6806504779       18.4734510552        6.4154484202
  O        39.4567809408       35.2438414882       11.9968861746
  O        19.1412089279        0.0045444563        3.9956715331
  O        41.9696515552       35.1727345344       12.0821232012
  O        21.6912843675       -0.0693218226        3.9010933354
  O        51.3651293332       18.6143222460       12.0003556817
  O        10.7510216417       18.7472056827        3.9100904076
  O        50.0799452016       16.4128111418       12.0862557637
  O         9.5240320072       16.4831482649        3.9965102289
 Zr         9.2955416264       16.0527886001       14.1773080240
 Zr        49.8357357332       16.0068355410        1.7513562877
 Zr        22.0732859930        0.0296355886       14.1839878664
 Zr        42.4608859212       35.1532297027        1.8061517640
 Zr        29.6013795894       19.0819966527       14.3101129497
 Zr        29.5755219326       19.1846544498        1.8756471974
 Zr        11.0374535781       19.0520584819        1.8325445589
 Zr        11.0432306332       19.1549053977       14.2462551206
 Zr        31.3369423588       16.1160565560        1.9087136171
 Zr        31.4072287305       16.0126127052       14.3006939677
 Zr        18.6010387789       -0.0013210039        1.7684380498
 Zr        18.5064087028       -0.0076269206       14.2086438750
 Zr        12.3011302865       16.3238272113       15.9850890061
 Zr        48.6153249625       18.8328750585        0.0152330063
 Zr        20.3150894823        2.4733459180       15.9856645063
 Zr        40.6435373046       32.6869905891       15.9731035107
 Zr        28.3448485516       16.3451822547        0.0876600722
 Zr        32.6321736453       18.8384403853        0.0658795724
  H        31.3955961759       21.0956150741        6.5202097356
  H        31.1764461385       20.4595009719        6.8385622674
  H        32.2079443260       13.9469711446        8.1193454964
  H        31.6895937928       14.3116243899        7.7348727949
