     572
 i =      309, E =     -4746.7827944033
  C        11.8586085686       14.0536046667       13.7364778608
  C        12.4561286258       12.8905829106       13.0181957731
  C        11.7045349339       12.1718528161       12.0763204179
  C        12.2808973015       11.1096331947       11.3839614119
  C        13.6213815034       10.7396490185       11.6119008079
  C        14.3544435178       11.4430175941       12.5855972201
  C        13.7815601378       12.5079999907       13.2771044110
  C        14.2609855151        9.6490376651       10.8384882365
  C        14.2564189761        9.6570040445        9.4167840818
  C        13.7432468601       10.7591185248        8.6628639106
  C        49.1265521249       21.2333047565       13.8746787082
  C        48.5497557164       22.4011526705       13.1475818850
  C        49.2998817589       23.0686192435       12.1667443194
  C        48.7329520335       24.1077185233       11.4335093321
  C        47.4023269594       24.5091996562       11.6619401205
  C        46.6712470205       23.8601450295       12.6752442408
  C        47.2336969816       22.8152703685       13.4046456017
  C        46.7721718158       25.5869259077       10.8646382428
  C        46.7613702105       25.5573952895        9.4428719136
  C        47.2613373948       24.4423087449        8.6993924972
  C        14.8604309163        8.5706991054        8.7035246511
  C        14.8916600504        8.5970187604       11.5151317588
  C        49.1131009829       21.2034463856        2.1504671288
  C        48.5277575405       22.3647669241        2.8776103333
  C        49.2671154663       23.0256898837        3.8703036547
  C        48.6907867507       24.0602408729        4.6017551843
  C        47.3602665461       24.4567969880        4.3637306625
  C        46.6396959930       23.8116461556        3.3404757915
  C        47.2132359158       22.7757232091        2.6087037524
  C        46.7218760309       25.5318130428        5.1547420417
  C        46.7337086621       25.5282532930        6.5764428794
  C        47.2491208655       24.4290402431        7.3328386597
  C        40.6195422980       17.0877746325        7.3148574892
  C        40.6297059309       17.1000440964        4.5052772163
  C        11.8828220296       14.0865798522        2.2905800158
  C        12.4721716370       12.9107017345        2.9947892714
  C        11.7146967153       12.1775764243        3.9209827663
  C        12.2812839467       11.0951133424        4.5894085759
  C        13.6200639292       10.7213160050        4.3574914113
  C        14.3579634032       11.4367492891        3.3965321202
  C        13.7925326401       12.5179234082        2.7238468198
  C        14.2537224490        9.6245962608        5.1279079642
  C        14.2525883926        9.6446330104        6.5497483904
  C        13.7427055195       10.7535810846        7.2968170966
  C        22.5111877010        3.2447673010       13.7470256384
  C        23.2238985437        4.3503528412       13.0449870859
  C        24.2223042202        4.0703961188       12.1002674467
  C        24.8481446736        5.1096777983       11.4164867771
  C        24.4911119891        6.4513731959       11.6569759238
  C        23.5203667921        6.7229575687       12.6384070484
  C        22.8902090268        5.6854899470       13.3207960793
  C        25.0966404751        7.5580879045       10.8809343638
  C        25.0737710607        7.5496798332        9.4590870278
  C        24.3776582369        6.5474817044        8.7111195652
  C        38.3018062211       31.9292615743       13.8443627458
  C        37.5704636076       30.8403517904       13.1359721333
  C        36.6076089232       31.1450689210       12.1615895767
  C        35.9884049262       30.1255635549       11.4439614799
  C        36.3175910994       28.7761678190       11.6785993614
  C        37.2505928391       28.4788466683       12.6898169273
  C        37.8735585480       29.4970376129       13.4067254862
  C        35.7151861603       27.6851103934       10.8803380960
  C        35.7448558677       27.7022908609        9.4588662801
  C        36.4463150384       28.7080983522        8.7220871461
  C        25.6956723833        8.6209643092        8.7400366888
  C        25.6895093727        8.6351109842       11.5524388804
  C        38.3284105465       31.9625146073        2.1611333413
  C        37.6054127730       30.8906006255        2.9026983123
  C        36.6746986653       31.2011831658        3.9059952919
  C        36.0625161960       30.1840364111        4.6355041997
  C        36.3670596312       28.8310246396        4.3854221377
  C        37.2754691967       28.5304317863        3.3519788780
  C        37.8895765218       29.5440247334        2.6235008302
  C        35.7581742959       27.7326921438        5.1696926113
  C        35.7668858694       27.7266353650        6.5917054518
  C        36.4564909395       28.7199613030        7.3555200508
  C        46.1357301187       26.6209090998        7.2865686839
  C        46.0878427518       26.5801109297        4.4786756448
  C        22.4625876322        3.2557402958        2.2616886396
  C        23.1609811781        4.3642552192        2.9816895626
  C        24.1686025134        4.0775575651        3.9164208667
  C        24.8004235391        5.1071659285        4.6099703578
  C        24.4445395491        6.4531380889        4.3917173671
  C        23.4602469372        6.7332344849        3.4250138247
  C        22.8241442472        5.7039009474        2.7316489506
  C        25.0755270793        7.5510362879        5.1667803875
  C        25.0637236379        7.5453924844        6.5895971662
  C        24.3709739533        6.5466280543        7.3443764469
  C        26.6181288486       17.8593611036       13.7772739813
  C        25.3113640547       17.9067623084       13.0533411268
  C        25.0474282740       18.9080532513       12.1050728335
  C        23.8349060991       18.9265042892       11.4182650947
  C        22.8484842444       17.9484607499       11.6591152897
  C        23.1078198871       16.9706909370       12.6382974065
  C        24.3227265723       16.9457395077       13.3215512892
  C        21.5754567578       17.9341579127       10.8943939689
  C        21.5764201324       17.9148579747        9.4718996205
  C        22.7824288968       17.7925896186        8.7121287565
  C        34.4383315688       17.1961022599       13.9140237516
  C        35.7312818544       17.1434694477       13.1706346044
  C        35.9393949558       16.1671086123       12.1838138660
  C        37.1188657618       16.1528689385       11.4447711569
  C        38.1238109900       17.1129603571       11.6732860652
  C        37.9193142409       18.0692770947       12.6861432741
  C        36.7364502872       18.0895382839       13.4218541188
  C        39.3767420437       17.1186758671       10.8837225719
  C        39.3684418438       17.1217608973        9.4617111062
  C        38.1592492765       17.2400826101        8.7066501686
  C        20.3302517757       17.9329733138        8.7625797791
  C        20.3505000200       17.9357268284       11.5762470545
  C        34.4408149326       17.2370487434        2.1928897470
  C        35.7417598259       17.1351326675        2.9142394366
  C        35.9406061283       16.1622911446        3.9051119303
  C        37.1308843742       16.1305603118        4.6275348023
  C        38.1500688391       17.0712006085        4.3802774038
  C        37.9564333965       18.0171298304        3.3559860349
  C        36.7661041857       18.0535766020        2.6361566064
  C        39.3994710641       17.0873082691        5.1732266593
  C        39.3799644510       17.1068255551        6.5948076478
  C        38.1647889678       17.2317952181        7.3399302334
  C        35.1399066473       26.6450966332        7.2951590715
  C        35.1698377901       26.6613929758        4.4861753295
  C        26.5716628437       17.8280321765        2.3302401935
  C        25.2570047065       17.8736242182        3.0369103188
  C        24.9971687764       18.8738464707        3.9859418188
  C        23.7790959859       18.9004320806        4.6592606292
  C        22.7923692073       17.9259181848        4.4085192765
  C        23.0472481125       16.9501703226        3.4278104961
  C        24.2655715216       16.9221479720        2.7518373777
  C        21.5288814531       17.9076358006        5.1815187508
  C        21.5523728959       17.8987623581        6.6031418544
  C        22.7704602568       17.7841572067        7.3458974385
  C        14.0465279346       17.8289774001        2.2938530916
  C        15.3511850485       17.8864441636        3.0192455562
  C        15.6079732490       18.8905043509        3.9658945822
  C        16.8169608715       18.9118854601        4.6588516919
  C        17.8034380765       17.9320065090        4.4272877051
  C        17.5514541609       16.9521435115        3.4484779768
  C        16.3419091950       16.9262227529        2.7571012733
  C        19.0724978173       17.9153801805        5.1965526517
  C        19.0709065799       17.9127911736        6.6190622377
  C        17.8636307803       17.8147191077        7.3799493159
  C        46.8020493148       17.2160797991        2.1621156004
  C        45.5085717244       17.1455518505        2.9023412173
  C        45.3040049844       16.1623345766        3.8830594364
  C        44.1199617995       16.1341935533        4.6153263540
  C        43.1090676732       17.0890564856        4.3900038329
  C        43.3101799279       18.0508325905        3.3812318168
  C        44.4951853955       18.0829650461        2.6496891524
  C        41.8558834541       17.0933692748        5.1803988321
  C        41.8646952812       17.0984032136        6.6026919553
  C        43.0752103723       17.1975543073        7.3583408677
  C        20.3175164556       17.9239493690        7.3277016581
  C        20.2968536498       17.8959829785        4.5147369080
  C        46.7849963308       17.2323919680       13.8812981623
  C        45.4837634855       17.1284550028       13.1613398746
  C        45.2662248399       16.1297189263       12.1998369568
  C        44.0790974389       16.1022181508       11.4719081614
  C        43.0791233468       17.0706531767       11.6873042231
  C        43.2879425204       18.0404003725       12.6859563699
  C        44.4759348563       18.0739856448       13.4094836771
  C        41.8313904104       17.0894553159       10.8918721532
  C        41.8524179980       17.0950028488        9.4704542413
  C        43.0695462341       17.1929723423        8.7251644011
  C        46.1534588779       26.6373264562        8.7211144189
  C        46.1621481517       26.6560007897       11.5307630788
  C        14.0449605871       17.8314827945       13.7036413931
  C        15.3658468203       17.9054198029       13.0126684779
  C        15.6399124065       18.9220821015       12.0857152199
  C        16.8688743748       18.9593421309       11.4308124940
  C        17.8511013290       17.9790436268       11.6772317764
  C        17.5837830320       16.9910591615       12.6422531688
  C        16.3568904151       16.9533586237       13.3007071123
  C        19.1184548353       17.9545297538       10.9085682993
  C        19.0949188036       17.9319820993        9.4870392471
  C        17.8752812398       17.8232935957        8.7459659087
  C        28.7914449603       14.1148921015        2.4012092520
  C        28.1902300421       12.9368926331        3.0895482969
  C        28.9126033361       12.2065076874        4.0444869123
  C        28.3196193894       11.1243388078        4.6904797951
  C        26.9898410328       10.7505860185        4.4083851881
  C        26.2900707076       11.4623939176        3.4173939289
  C        26.8811975998       12.5427328761        2.7678618944
  C        26.3232248487        9.6670647084        5.1669242183
  C        26.3039222899        9.6947198495        6.5879119673
  C        26.7989000676       10.8107644588        7.3344721616
  C        32.1805915969       21.2422386091        2.1485464524
  C        32.7752365040       22.4083058820        2.8660368072
  C        32.0297404199       23.0769619280        3.8493298794
  C        32.5994304393       24.1164045050        4.5779219250
  C        33.9301437700       24.5143023169        4.3446222990
  C        34.6576312578       23.8636612295        3.3304012779
  C        34.0903549163       22.8189145800        2.6031481133
  C        34.5579937286       25.5896746360        5.1452489154
  C        34.5522355815       25.5592893435        6.5668789830
  C        34.0514124248       24.4400762945        7.3041674398
  C        25.6952756781        8.6152702888        7.3053903496
  C        25.6917883701        8.6137308842        4.4921531648
  C        32.1194349479       21.1958542857       13.8432187762
  C        32.7041923924       22.3554664602       13.1085606363
  C        31.9703296972       23.0132504173       12.1094722857
  C        32.5456897469       24.0528594597       11.3831722049
  C        33.8697345213       24.4625954654       11.6358004991
  C        34.5851821494       23.8192674155       12.6637577329
  C        34.0135627019       22.7761768082       13.3875718561
  C        34.5073889106       25.5473730042       10.8549839364
  C        34.5252333582       25.5382544020        9.4330327172
  C        34.0376344145       24.4303351030        8.6707018151
  C        40.6131348776       17.0908826682        8.7497415999
  C        40.6020187227       17.1191557948       11.5600320031
  C        28.7193278325       14.0978000595       13.7790349721
  C        28.1130682843       12.9466063074       13.0472524203
  C        28.8512072506       12.2411088491       12.0845185753
  C        28.2727000207       11.1772477521       11.3965163529
  C        26.9397836418       10.7924793274       11.6453245380
  C        26.2196152493       11.4837650215       12.6376064356
  C        26.7968372126       12.5472895082       13.3285002815
  C        26.3003975128        9.6985366956       10.8754917990
  C        26.2938453592        9.7107864379        9.4537516133
  C        26.7922395409       10.8194960962        8.7000568597
  C        18.1354083012        3.1809322954        2.3222366098
  C        17.4060340508        4.2782156997        3.0207995028
  C        16.3905807166        3.9998237188        3.9485908961
  C        15.7428385525        5.0397942107        4.6120983795
  C        16.0944778014        6.3835413840        4.3721694297
  C        17.0834973949        6.6530838078        3.4080344150
  C        17.7326041575        5.6157530993        2.7429761751
  C        15.4702029823        7.4912627310        5.1352145393
  C        15.4856271026        7.4906619031        6.5569290753
  C        16.1872509210        6.4971068440        7.3101195194
  C        42.9458863699       31.8594478384        2.0779819522
  C        43.6462476856       30.7718266020        2.8219102990
  C        44.5919698818       31.0931425758        3.8078123161
  C        45.1976723916       30.0875973450        4.5554654264
  C        44.8710953085       28.7345418557        4.3407430608
  C        43.9450720151       28.4201985049        3.3277129173
  C        43.3362584807       29.4253416632        2.5796724352
  C        45.4887186431       27.6552785594        5.1439482390
  C        45.4930131457       27.6810190203        6.5656380642
  C        44.8059043628       28.6890649860        7.3122392851
  C        14.8566804851        8.5631668792        7.2692964990
  C        14.8748371424        8.5629963825        4.4566341469
  C        42.9464500952       31.9615189948       13.8038472897
  C        43.6916368108       30.8854486170       13.0903575711
  C        44.6563388483       31.1913545652       12.1181492467
  C        45.2778376303       30.1717569648       11.4004349744
  C        44.9539240844       28.8214404611       11.6379415514
  C        44.0202885177       28.5237795964       12.6485813590
  C        43.3920478096       29.5405485649       13.3607657116
  C        45.5629886181       27.7240636791       10.8526931311
  C        45.5334497497       27.7174656372        9.4313928839
  C        44.8271601622       28.7077040835        8.6784231410
  C        35.1274853586       26.6335774812        8.7298982187
  C        35.1140263742       26.6071437321       11.5397998640
  C        18.1485899499        3.2469231994       13.7015424660
  C        17.4299344944        4.3438171141       12.9922953858
  C        16.4149076995        4.0525383119       12.0685345991
  C        15.7666059983        5.0831670636       11.3931153559
  C        16.1210535880        6.4284258583       11.6160240544
  C        17.1122110611        6.7118007025       12.5735171963
  C        17.7598772558        5.6828966393       13.2533078628
  C        15.4906074727        7.5241409237       10.8435560557
  C        15.4966463762        7.5075915676        9.4224174830
  C        16.1934695121        6.5059244641        8.6757256123
  H        10.6724572869       12.4661140447       11.8991909740
  H        11.6946316626       10.5512714670       10.6573093186
  H        15.3913868172       11.1682159436       12.7675190971
  H        14.3509041834       13.0710597558       14.0127591513
  H        13.3761248111       11.6311969904        9.1961740378
  H        50.3226483667       22.7487016973       11.9821413349
  H        49.3194701271       24.6230898693       10.6760320343
  H        45.6416477147       24.1606883842       12.8581953285
  H        46.6625449802       22.2898854418       14.1665377132
  H        47.6297080340       23.5758656300        9.2410865735
  H        14.8718178363        8.5881776438       12.6034351139
  H        50.2872360670       22.7029942111        4.0650557087
  H        49.2692238941       24.5758430227        5.3651236739
  H        45.6101563666       24.1085973547        3.1516868521
  H        46.6522137330       22.2533326592        1.8374405997
  H        47.6077946599       23.5518649189        6.8019621839
  H        40.6329510254       17.0630618027        3.4175489942
  H        48.6869817921       14.0949846951       15.7948790912
  H        10.6812364978       12.4666782274        4.0984183500
  H        11.6894960816       10.5247482693        5.3021349284
  H        15.3933466636       11.1587564615        3.2104899394
  H        14.3647810258       13.0872203553        1.9951880346
  H        13.3757608511       11.6221349093        6.7581610377
  H        47.9300272061       14.2185862211        1.7158003191
  H        47.7799131349       14.3735119209       14.4900631279
  H        49.0823339628       18.5518413417        2.8720319432
  H        10.4156918995       14.1343994061        0.0038560155
  H        24.4858313065        3.0319293551       11.9122632706
  H        25.6229448663        4.8918874415       10.6845745354
  H        23.2367965350        7.7556920209       12.8304163528
  H        22.1187997278        5.8859837068       14.0603221894
  H        23.8175774727        5.7888341728        9.2500217429
  H        36.3694676536       32.1884277389       11.9687457329
  H        35.2414431127       30.3652989760       10.6904051241
  H        37.5121588958       27.4396058642       12.8779783444
  H        38.6194452986       29.2753078444       14.1663097634
  H        37.0085280493       29.4598414237        9.2683455047
  H        25.7217502224        8.6187389189       12.6403716601
  H        36.4519521201       32.2457760774        4.1113845515
  H        35.3351434958       30.4301899214        5.4059234426
  H        37.5222776963       27.4897635607        3.1524266784
  H        38.6132963504       29.3169695540        1.8445184222
  H        37.0276863186       29.4803452267        6.8307726017
  H        46.1090539452       26.5873585294        3.3906358813
  H        44.6681308768       35.1160596731       15.8088339311
  H        24.4471383826        3.0391535241        4.0812816762
  H        25.5849011929        4.8774905151        5.3279339030
  H        23.1737307037        7.7678320520        3.2474596996
  H        22.0483835780        5.9175327640        1.9999455696
  H        23.8052287990        5.7878112195        6.8115713117
  H        44.9533287651       34.3898985517        1.6999471621
  H        44.9011875795       34.2066158153       14.4854657202
  H        40.6655596019       33.2087194159        2.8580044644
  H        23.1506351791        1.9575892229        0.0098205007
  H        25.8023704991       19.6696488337       11.9231548776
  H        23.6357933854       19.7087485292       10.6888234903
  H        22.3578298643       16.2069419738       12.8338479760
  H        24.5333057698       16.1771155499       14.0615799181
  H        23.7231633058       17.6742904170        9.2419734239
  H        35.1590963727       15.4309881499       12.0059495548
  H        37.2783857251       15.3891602219       10.6867174149
  H        38.6868175324       18.8190613952       12.8668507926
  H        36.5622017662       18.8429803205       14.1865813135
  H        37.2213094889       17.3711044120        9.2389151746
  H        20.3565038639       17.9742171970       12.6641734282
  H        35.1436781455       15.4509412413        4.1091611000
  H        37.2832032004       15.3731134499        5.3932436513
  H        38.7358571104       18.7504320409        3.1596790519
  H        36.5962821138       18.8031304105        1.8670485850
  H        37.2305986529       17.3560409803        6.7995601163
  H        35.1415764832       26.6880667819        3.3985200359
  H        28.5114629102       21.0892433094       15.8956700184
  H        25.7627429476       19.6219893812        4.1786197372
  H        23.5769632727       19.6810918201        5.3894354824
  H        22.2938398754       16.1908173602        3.2284681794
  H        24.4783283823       16.1573663429        2.0086624351
  H        23.7020841830       17.6595843345        6.8021268976
  H        28.9950325926       21.7270932186        1.7563496163
  H        29.1577775173       21.7489514860       14.5522730870
  H        32.0910746358       18.5785811176        2.9958478966
  H        27.4082867228       19.0827839314        0.0875566206
  H        14.8495633693       19.6497521132        4.1433846673
  H        17.0121840772       19.6968349514        5.3863715531
  H        18.3025747247       16.1876156896        3.2606427036
  H        16.1358689178       16.1564201360        2.0172050174
  H        16.9212414406       17.6997191164        6.8523231244
  H        46.0904234318       15.4337373771        4.0654346870
  H        43.9638485905       15.3644063240        5.3679220946
  H        42.5382414028       18.7962787716        3.2015269325
  H        44.6653721770       18.8406612252        1.8883139835
  H        44.0156691317       17.3092794751        6.8263778005
  H        20.2909867438       17.9258373293        3.4266064174
  H        46.0428192632       15.3885717342       12.0250582220
  H        43.9134858124       15.3260637317       10.7278986525
  H        42.5216535210       18.7931350586       12.8591012529
  H        44.6569994530       18.8413373060       14.1581389963
  H        44.0057600769       17.3000922330        9.2653488512
  H        46.1987634176       26.6824218846       12.6182193451
  H        52.7410382546       21.0626027948        0.1997757379
  H        14.8799764556       19.6767347839       11.8952461542
  H        17.0807446926       19.7507163311       10.7150217689
  H        18.3335650963       16.2277272614       12.8398681443
  H        16.1349090475       16.1779274373       14.0298322495
  H        16.9416769126       17.7149047761        9.2897539317
  H        52.3221088164       21.6731774938       14.2893210034
  H        52.0130880304       21.7019716229        1.5007718901
  H        49.0670443200       18.6078463877       13.1991648145
  H        13.2472308706       19.0165462320       15.9721662852
  H        29.9355591238       12.5009368720        4.2678882220
  H        28.8819403567       10.5562115113        5.4283341501
  H        25.2625835921       11.1844074771        3.1917814675
  H        26.3384182160       13.1128397420        2.0179130014
  H        27.1593267423       11.6812008057        6.7947068918
  H        31.0082088238       22.7546425292        4.0368538311
  H        32.0167725314       24.6348269094        5.3362493792
  H        35.6877335255       24.1613397248        3.1454172658
  H        34.6579561200       22.2905407844        1.8405877491
  H        33.7034625889       23.5677077460        6.7581560613
  H        25.7250031516        8.5937311358        3.4042358083
  H        30.9513547543       22.6894320363       11.9104753985
  H        31.9703927879       24.5645421206       10.6147262120
  H        35.6099866384       24.1247680117       12.8644678443
  H        34.5711808776       22.2574824551       14.1638941475
  H        33.6796155748       23.5501034704        9.1971253888
  H        40.5976811398       17.0887490614       12.6479521893
  H        32.5104652360       14.1510738525        0.2710874754
  H        29.8816925753       12.5342199081       11.8969345571
  H        28.8527522996       10.6257795856       10.6597135570
  H        25.1886910058       11.1986795251       12.8373344481
  H        26.2380257789       13.0957765042       14.0831545917
  H        27.1459891831       11.6969256686        9.2333566374
  H        33.2908542180       14.1926758730       14.4288227283
  H        33.4029909855       14.4078202784        1.6159348123
  H        32.1440585526       18.5311563107       13.1777901824
  H        30.2106323517       14.1881390120        0.0831485213
  H        16.1187205770        2.9633001583        4.1351878950
  H        14.9535654901        4.8203712081        5.3279425708
  H        17.3656102971        7.6859909427        3.2146254547
  H        18.5143141785        5.8183907375        2.0147730208
  H        16.7537885304        5.7397487298        6.7766253956
  H        44.8283319212       32.1402127288        3.9819377002
  H        45.9376345629       30.3413107403        5.3113273401
  H        43.6821444893       27.3781573599        3.1577761703
  H        42.5994442041       29.1899582560        1.8152123283
  H        44.2304743564       29.4367589826        6.7739137856
  H        14.8509019261        8.5461274801        3.3684185940
  H        44.8999749689       32.2340229172       11.9267636747
  H        46.0247922715       30.4129412837       10.6472346190
  H        43.7631121239       27.4840728917       12.8399857341
  H        42.6454193666       29.3177068342       14.1190702721
  H        44.2685316431       29.4705261022        9.2129724654
  H        35.0716221257       26.6184227745       12.6272947722
  H        36.6050175521       35.1340524044        0.1857929702
  H        16.1439445723        3.0129458522       11.8986971247
  H        14.9743843303        4.8562820745       10.6829264587
  H        17.3954583641        7.7472977874       12.7506412357
  H        18.5425149590        5.8933332617       13.9783331877
  H        16.7648661033        5.7556601606        9.2141698910
  H        36.2785828663       34.4823198478       14.2682234108
  H        36.3808126634       34.2092316495        1.5048679946
  H        40.5797715491       33.2021222513       13.1486132375
  H        17.4708024163        1.9471477634       15.9689979873
  H        28.9899398430       19.4000546856        4.5037338921
  H        28.8216846136       18.6045519114       11.8500113754
  H        30.4988480697       15.6495565323       11.9012283687
  H        31.0018957224       15.5517101111        4.4784811042
  H        27.8604905238       17.7535627365        6.6182052733
  H        28.9858301903       15.5674565345        6.6271078542
  H        30.1218342314       19.8147997563        9.9541251285
  H        32.1110585055       16.0366814302        9.8990444383
  H        18.8536229225        0.8690086281        4.3405233526
  H        40.5277853750       35.2292179131       11.9470396487
  H        42.3238489601       34.4188348611       11.5857220008
  H        22.0879612021        0.6919836289        4.3567493481
  H        11.5969831738       18.7127276755        4.3874207982
  H        52.2647485740       18.4309388863       11.6723975335
  H        49.2545937101       16.4772179764       11.5797717306
  H        10.1495812947       15.7982725485        4.2981918934
  H        50.8497602092       17.6924876160       11.9491805486
  H        10.0456604438       17.3945503511        4.0571101700
  H        20.2148457730        0.0022373210        4.0471517729
  H        39.1834117867       36.1242825262       11.6812468524
 Ni        30.7700882343       17.7284780861       10.9054034316
 Ni        30.8169141434       16.4861153680        7.8299694194
 Ni        29.7256016723       18.6138044264        7.8298143502
 Ni        30.0547751204       17.4982076790        5.3293195341
  O        10.6499009696       14.3651763932       13.4806961716
  O        12.6131571054       14.6575344192       14.5788023062
  O        49.1477419880       16.8459993419       15.9846888164
  O        50.3500920940       20.9360767384       13.6431312021
  O        48.3484678118       20.5932730791       14.6609118347
  O        11.0514098080       17.0539821633       14.4955472119
  O        50.3209888864       20.8816826188        2.4119223101
  O        48.3467289673       20.5867143653        1.3322277603
  O        49.5435350091       18.2484386984        2.0733736921
  O        12.3588775793       18.6245779589        0.0048456808
  O        48.6931796141       14.1486145578       14.7461688846
  O         8.2098379040       14.2104171308        1.3276599711
  O        10.7352888796       14.5067471386        2.6694650627
  O        12.5717772239       14.5828556822        1.3336132771
  O        22.8449954614        2.0438692542       13.4819615657
  O        21.6056151166        3.5925615443       14.5844347595
  O        42.0581422405       34.1372816967       15.9738249261
  O        37.9815504659       33.1377549303       13.5675986733
  O        39.2180298765       31.5760829507       14.6614251339
  O        20.3084150399        1.0396314863       14.4969365525
  O        38.0250097388       33.1865591159        2.4199736757
  O        39.2190737017       31.5838429464        1.3316372101
  O        40.6523251484       33.7693537570        2.0653344505
  O        18.2555464700        1.3760596539        0.0019134868
  O        44.6222176475       35.1005545920       14.7536143402
  O        24.2053967675       -0.0000087189        1.3259150251
  O        22.7531756063        2.0576873251        2.5889219326
  O        21.6247853819        3.5964110451        1.3483123591
  O        27.4991220269       18.7495817505       13.4854956078
  O        26.7619185475       16.9371640510       14.6487556004
  O        30.6675892500       19.4100580766        0.0731293012
  O        33.5808484713       16.2797470622       13.6600053090
  O        34.2740670549       18.1667621200       14.7324028590
  O        29.5719287664       17.0653013977       14.5774645203
  O        33.5541968718       16.3406395600        2.4216056160
  O        34.3004248628       18.2394675778        1.4129341872
  O        31.6490183952       18.3177074279        2.1704526082
  O        30.3186392439       15.1533956893        0.0904147700
  O        28.5558729565       21.0368845311       14.8355290967
  O        28.5145005157       20.9567846375        1.4082455353
  O        27.4577005702       18.6793498526        2.6656191941
  O        26.6939914873       16.9303491434        1.4180418303
  O        13.1487940168       18.6930121538        2.5925944802
  O        13.9195363352       16.9162426460        1.4102646625
  O        50.5957545662       19.3501633428        0.0256883537
  O        47.6828114458       16.3270541710        2.4223436754
  O        46.9503776574       18.1755592774        1.3306556368
  O        11.0695248675       17.0156414444        1.4948082389
  O        47.6756951555       16.3358843321       13.6477380975
  O        46.9261622059       18.2357924334       14.6587200184
  O        49.5684200518       18.3177284105       13.9772178354
  O        10.3185482498       15.1002687934        0.0021980737
  O        52.6707288510       21.0278805651        1.2469357107
  O        12.1467904036       20.8911649725       14.6681143346
  O        13.1080398959       18.6137073116       13.3205102790
  O        13.9571648646       16.9869721781       14.6603531000
  O        29.9622942636       14.4989139093        2.7458069827
  O        28.0801026195       14.6571622964        1.4909609084
  O        32.0825869095       16.8703166034        0.0914274801
  O        30.9671583687       20.9551184404        2.4125097539
  O        32.9483325121       20.6005921175        1.3441024087
  O        29.5631601971       17.0842559421        1.5824863399
  O        30.9058163783       20.8765400293       13.5803984093
  O        32.8801859189       20.5848337927       14.6630702893
  O        31.6861019013       18.2516737339       13.9884773970
  O        28.2921587836       18.6807747862        0.0809966094
  O        32.4885639178       14.2148926591        1.3393012222
  O        32.4003971256       14.2143792854       14.8168085986
  O        29.8747266572       14.5066668847       13.4083311659
  O        28.0417233181       14.5871165981       14.7449657984
  O        17.8892146684        1.9666728698        2.6679285607
  O        18.9562724410        3.5271665488        1.4130717481
  O        39.1687113419       34.1388152131        0.0022740286
  O        43.2802056420       33.0589669757        2.3367664799
  O        42.0345308973       31.5064628657        1.2467060536
  O        20.3177391644        1.0367362108        1.4852930948
  O        43.2760857681       33.1825979183       13.5697989458
  O        42.0052833564       31.5841141423       14.5778836812
  O        40.5789972362       33.7749362455       13.9306447861
  O        22.3673109824        1.3846663284        0.0030357995
  O        36.6727240979       35.0998252727        1.2383863895
  O        16.4455183562        0.0642721038       14.6631576217
  O        17.9364613482        2.0434043584       13.3212669853
  O        18.9190872756        3.5931393163       14.6608508018
  O        29.7452853494       18.8213212017       12.0850087651
  O        29.7847567768       19.0362464334        4.0690758249
  O        31.1787935180       16.3281802559       12.0921785368
  O        31.2204607911       16.4162531845        4.0790607720
  O        31.6034774349       16.7653514736        9.4986632965
  O        29.9138449866       15.7542831046        6.4059052340
  O        30.4056987708       18.9889324993        9.5221512390
  O        28.5625222074       18.3940528490        6.4131205302
  O        39.4567397787       35.2437448212       11.9968560041
  O        19.1415605398        0.0046273251        3.9956456262
  O        41.9697913065       35.1729984584       12.0821621186
  O        21.6913997415       -0.0693177480        3.9010705956
  O        51.3649308187       18.6142779237       12.0003518481
  O        10.7511177752       18.7471764355        3.9100289141
  O        50.0792467864       16.4128072049       12.0866862862
  O         9.5239560848       16.4831713527        3.9963144352
 Zr         9.2962429151       16.0528880556       14.1772687226
 Zr        49.8358027464       16.0068877196        1.7516499480
 Zr        22.0730809285        0.0295524643       14.1840317214
 Zr        42.4607706367       35.1530509014        1.8060143099
 Zr        29.6231003621       19.0905488501       14.2918831728
 Zr        29.5771428877       19.1878883229        1.9006227304
 Zr        11.0375095986       19.0521279655        1.8328267063
 Zr        11.0432637232       19.1549552303       14.2462209636
 Zr        31.3320007368       16.1125519329        1.9186065952
 Zr        31.3994658889       16.0239777815       14.2988217806
 Zr        18.6009987371       -0.0016596822        1.7685135864
 Zr        18.5063019976       -0.0081071774       14.2086363948
 Zr        12.3014570313       16.3236523463       15.9852411513
 Zr        48.6153513182       18.8329207266        0.0155476027
 Zr        20.3150865660        2.4730674672       15.9855854925
 Zr        40.6431704037       32.6865678480       15.9730927069
 Zr        28.3504110188       16.3526314961        0.0914578204
 Zr        32.6279529432       18.8427098468        0.0646362567
  H        30.9501108663       20.4827114103        7.0234063069
  H        31.0672260964       21.1536928622        6.7223800965
  H        33.5066748491       17.0839631471        6.3772468592
  H        33.0379708183       16.9451902139        5.8234864652
