     571
 i =      129, E =     -4761.6050362268
  C        11.8585831064       14.0535616918       13.7364810239
  C        12.4561168394       12.8905826986       13.0182113071
  C        11.7046332634       12.1720168001       12.0761211503
  C        12.2810523006       11.1098497642       11.3837420665
  C        13.6214696723       10.7397266397       11.6118693811
  C        14.3543799572       11.4428894273       12.5858324715
  C        13.7814534423       12.5078251617       13.2773617649
  C        14.2611026568        9.6491469224       10.8384649400
  C        14.2565607474        9.6571568674        9.4167669356
  C        13.7434649649       10.7593062647        8.6628443459
  C        49.1265425650       21.2333039039       13.8746656326
  C        48.5497668105       22.4011287958       13.1475434604
  C        49.2998251585       23.0684210014       12.1665357127
  C        48.7329062769       24.1075189598       11.4333006593
  C        47.4023621102       24.5091933741       11.6619006421
  C        46.6713561435       23.8603039199       12.6753648798
  C        47.2337837734       22.8154057494       13.4047484912
  C        46.7723125486       25.5869737530       10.8646019011
  C        46.7616020401       25.5574659374        9.4428376963
  C        47.2612258651       24.4422125526        8.6993732610
  C        14.8605383497        8.5708383794        8.7035048438
  C        14.8917933418        8.5971344497       11.5151073502
  C        49.1131159577       21.2034287266        2.1504483346
  C        48.5278284102       22.3647281904        2.8776129282
  C        49.2671111472       23.0253734303        3.8705460952
  C        48.6908389599       24.0599326938        4.6020092962
  C        47.3604584021       24.4568145268        4.3637340243
  C        46.6399773705       23.8119408465        3.3402423383
  C        47.2134520863       22.7759903833        2.6084681438
  C        46.7222130003       25.5319083952        5.1547206902
  C        46.7340393219       25.5283281260        6.5764177102
  C        47.2490490536       24.4289295256        7.3328207089
  C        40.6213518667       17.0858420685        7.3145441343
  C        40.6318679392       17.0995773370        4.5049434690
  C        11.8828282309       14.0865232671        2.2905595249
  C        12.4720990433       12.9106031097        2.9946831410
  C        11.7147557638       12.1777999513        3.9212391278
  C        12.2813332763       11.0953611139        4.5896907617
  C        13.6199677169       10.7212343738        4.3574424447
  C        14.3576899341       11.4363103108        3.3960731913
  C        13.7922808801       12.5174693294        2.7233633175
  C        14.2536595707        9.6245883168        5.1278944742
  C        14.2526292663        9.6447328780        6.5497293373
  C        13.7428766338       10.7537428069        7.2967998622
  C        22.5098278862        3.2442808595       13.7466118509
  C        23.2199502609        4.3501389946       13.0429611354
  C        24.2168522731        4.0709932838       12.0965504051
  C        24.8403637847        5.1109670457       11.4118751779
  C        24.4821796978        6.4521077484       11.6533947524
  C        23.5126283421        6.7228553527       12.6361358040
  C        22.8848424429        5.6847420733       13.3194100941
  C        25.0865383060        7.5595214207       10.8780805247
  C        25.0653264792        7.5515692000        9.4563211058
  C        24.3705048075        6.5494873486        8.7070255140
  C        38.2976032505       31.9320539587       13.8491281072
  C        37.5571538651       30.8459903150       13.1530051194
  C        36.6496238383       31.1475540993       12.1240100066
  C        36.0404835182       30.1266609445       11.4045210382
  C        36.3073222798       28.7709170812       11.7007637232
  C        37.1714595003       28.4818161080       12.7798873544
  C        37.7968417775       29.5025031149       13.4861632941
  C        35.7266525787       27.6793443220       10.9114175545
  C        35.7284093364       27.7133685833        9.4555109488
  C        36.4452754520       28.6795487107        8.7356164859
  C        25.6881950123        8.6231233895        8.7387251767
  C        25.6781157686        8.6362757092       11.5510468388
  C        38.3244057353       31.9640486320        2.1550569639
  C        37.5922544718       30.8946833630        2.8815813058
  C        36.7161166292       31.1997893884        3.9365577122
  C        36.1162014089       30.1804997095        4.6678663454
  C        36.3604479860       28.8222618325        4.3589500535
  C        37.2002099142       28.5320658658        3.2594704460
  C        37.8149571529       29.5487397731        2.5419380437
  C        35.7760536501       27.7245240511        5.1350762250
  C        35.7526339655       27.7364072318        6.5915110882
  C        36.4567448679       28.6912352635        7.3382236498
  C        46.1364293023       26.6212037849        7.2865112994
  C        46.0883988900       26.5803172630        4.4786169349
  C        22.4629824259        3.2558434405        2.2613794727
  C        23.1622948793        4.3647002037        2.9803156811
  C        24.1699125800        4.0785014041        3.9152032763
  C        24.8021304750        5.1085226459        4.6078630046
  C        24.4467500012        6.4544772017        4.3886088771
  C        23.4627232020        6.7340685574        3.4215300149
  C        22.8262146105        5.7043188296        2.7290526630
  C        25.0768427375        7.5526006439        5.1643341455
  C        25.0612022573        7.5474138032        6.5871015951
  C        24.3665226614        6.5487855187        7.3403134632
  C        26.6184501157       17.8612650619       13.7780869929
  C        25.3106900798       17.9068158878       13.0540503985
  C        25.0421524739       18.9123977308       12.1118585952
  C        23.8297628590       18.9299154080       11.4247637127
  C        22.8476235990       17.9463885706       11.6598215502
  C        23.1110200099       16.9639542260       12.6329638657
  C        24.3261296013       16.9403095535       13.3163538151
  C        21.5745954680       17.9319326139       10.8949214727
  C        21.5756823678       17.9141528010        9.4724879909
  C        22.7822155711       17.7953715294        8.7128661203
  C        34.4417865532       17.1935950558       13.9174475873
  C        35.7360859318       17.1421112186       13.1750456856
  C        35.9425490378       16.1664223244       12.1872885199
  C        37.1208699407       16.1524360308       11.4464677464
  C        38.1261131957       17.1123372028       11.6740998175
  C        37.9232184057       18.0681148118       12.6877908017
  C        36.7413724430       18.0880173692       13.4254075011
  C        39.3783400475       17.1178048283       10.8834878845
  C        39.3700662107       17.1197513112        9.4614123358
  C        38.1608403608       17.2358493097        8.7060438971
  C        20.3295937091       17.9310162064        8.7630452029
  C        20.3496768531       17.9323397222       11.5766090483
  C        34.4432104515       17.2363348323        2.1907529135
  C        35.7453546383       17.1337274453        2.9108135634
  C        35.9459394847       16.1577156852        3.8982222175
  C        37.1354820723       16.1262221804        4.6219459795
  C        38.1527787585       17.0698351141        4.3786526139
  C        37.9582585191       18.0180945374        3.3567018399
  C        36.7683153391       18.0545625859        2.6360171375
  C        39.4016146290       17.0858320574        5.1725926605
  C        39.3819202784       17.1041602255        6.5942069942
  C        38.1665642465       17.2270689076        7.3392762115
  C        35.0971641299       26.6702812365        7.2936614045
  C        35.2273369201       26.6293574966        4.4590719609
  C        26.5712282252       17.8263394959        2.3305074708
  C        25.2569860904       17.8701938664        3.0387325690
  C        24.9894977118       18.8781102825        3.9772807437
  C        23.7718707370       18.9033625568        4.6512074038
  C        22.7916186503       17.9201793559        4.4096784799
  C        23.0530383153       16.9366231233        3.4387195982
  C        24.2717903677       16.9095720991        2.7632837959
  C        21.5278546169       17.9028579668        5.1823297264
  C        21.5517724654       17.8971953750        6.6038158367
  C        22.7703419193       17.7866485743        7.3465732595
  C        14.0462957577       17.8286779485        2.2939245063
  C        15.3508152542       17.8851612719        3.0196701719
  C        15.6083932901       18.8891444475        3.9661363370
  C        16.8173366814       18.9094309571        4.6592006263
  C        17.8028098182       17.9284946468        4.4278531235
  C        17.5499757359       16.9485806545        3.4493620446
  C        16.3405011434       16.9237982582        2.7578729913
  C        19.0718204619       17.9111963817        5.1970460726
  C        19.0703044778       17.9096119975        6.6195124025
  C        17.8629339921       17.8114141687        7.3802920413
  C        46.8025173636       17.2160256544        2.1620387127
  C        45.5094566704       17.1454709246        2.9023645032
  C        45.3051961764       16.1618843166        3.8827276146
  C        44.1213890371       16.1336730531        4.6151945752
  C        43.1107406671       17.0887887243        4.3901736836
  C        43.3115879321       18.0509923807        3.3818223862
  C        44.4963286433       18.0831845263        2.6500375984
  C        41.8577617032       17.0927440332        5.1804208543
  C        41.8665703019       17.0972224156        6.6026057462
  C        43.0770983865       17.1966126149        7.3581831313
  C        20.3168700941       17.9217202395        7.3282469606
  C        20.2961751225       17.8900828827        4.5152116053
  C        46.7852171021       17.2322900503       13.8814630895
  C        45.4842345206       17.1281999618       13.1615356650
  C        45.2669428947       16.1290601623       12.2004184977
  C        44.0801001243       16.1015141142       11.4721470067
  C        43.0803969588       17.0703208832       11.6869146064
  C        43.2888910716       18.0403820627       12.6852945744
  C        44.4766048534       18.0740434067       13.4091571699
  C        41.8329199348       17.0888961280       10.8913852519
  C        41.8540812310       17.0939063210        9.4700630438
  C        43.0712963687       17.1919854957        8.7249700019
  C        46.1540764793       26.6376020230        8.7210616701
  C        46.1623845448       26.6561241665       11.5307082244
  C        14.0446382543       17.8310725732       13.7035694779
  C        15.3653081689       17.9040182588       13.0122322184
  C        15.6399492562       18.9206525809       12.0854916773
  C        16.8689473989       18.9571462731       11.4306930758
  C        17.8503494090       17.9760632354       11.6771033930
  C        17.5823916149       16.9878906511       12.6416772084
  C        16.3554569876       16.9509784516       13.3000172531
  C        19.1177383140       17.9513027674       10.9087423474
  C        19.0942369342       17.9291171519        9.4873233251
  C        17.8746184123       17.8199729895        8.7462585639
  C        28.7945032060       14.1188022872        2.4043201366
  C        28.1931407583       12.9407523560        3.0938191663
  C        28.9129844751       12.2141137542        4.0535151225
  C        28.3200406406       11.1310058986        4.6983198068
  C        26.9925919863       10.7527702362        4.4106187740
  C        26.2955730224       11.4612524800        3.4153805620
  C        26.8867622479       12.5421630214        2.7669334977
  C        26.3247760026        9.6687080177        5.1672878347
  C        26.3011304699        9.6969419386        6.5881551081
  C        26.7934306683       10.8133348301        7.3360444700
  C        32.1781970091       21.2427585816        2.1438133617
  C        32.7677296834       22.4159576107        2.8488206674
  C        32.0448693361       23.0572103082        3.8683939270
  C        32.6220442679       24.0878435517        4.5991154744
  C        33.9364650526       24.5237021782        4.3206583690
  C        34.6320441470       23.9105213206        3.2562164199
  C        34.0619085735       22.8628321405        2.5400649011
  C        34.5750656490       25.5825347452        5.1114379704
  C        34.5336528742       25.5699975232        6.5668926759
  C        34.0676202112       24.4610210407        7.2869038569
  C        25.6908979942        8.6174806778        7.3041802679
  C        25.6953352556        8.6149092741        4.4911025883
  C        32.1119953496       21.2000722028       13.8505203968
  C        32.6906558758       22.3671625231       13.1285212746
  C        31.9888582607       22.9783672817       12.0760739848
  C        32.5711163836       24.0088311554       11.3466336231
  C        33.8682876587       24.4757898915       11.6585695878
  C        34.5414893214       23.8871833147       12.7524038743
  C        33.9685879191       22.8417892172       13.4668191032
  C        34.5168415942       25.5419535246       10.8864914902
  C        34.5045065468       25.5494970558        9.4298182539
  C        34.0532884388       24.4509419121        8.6845290385
  C        40.6147868587       17.0891393096        8.7494159316
  C        40.6036808949       17.1188658495       11.5595736643
  C        28.7155891556       14.0933700348       13.7817390874
  C        28.1054969179       12.9436111707       13.0501735202
  C        28.8437660267       12.2351210764       12.0898465955
  C        28.2637139775       11.1730538805       11.4006210284
  C        26.9290283744       10.7929143026       11.6464039001
  C        26.2084277641       11.4868645199       12.6363407640
  C        26.7874164168       12.5489928683       13.3282252649
  C        26.2893811367        9.7000544175       10.8754562522
  C        26.2848188899        9.7127493871        9.4538564096
  C        26.7841921865       10.8219208005        8.7015751891
  C        18.1354318418        3.1808697375        2.3222756327
  C        17.4059797528        4.2782445624        3.0208138957
  C        16.3903647128        3.9998664493        3.9484044054
  C        15.7426131013        5.0398272860        4.6119333508
  C        16.0944066166        6.3835446896        4.3721547536
  C        17.0836244315        6.6530944672        3.4082436002
  C        17.7327360091        5.6157555324        2.7431854871
  C        15.4701375436        7.4912649960        5.1352147275
  C        15.4856302331        7.4907365433        6.5569252865
  C        16.1872511421        6.4971637980        7.3100975929
  C        42.9461533356       31.8595599648        2.0778940646
  C        43.6467741362       30.7720103740        2.8218889630
  C        44.5933133988       31.0933978639        3.8069622648
  C        45.1992096395       30.0879287408        4.5545944620
  C        44.8719601771       28.7349287467        4.3406238645
  C        43.9450844679       28.4205159088        3.3284138166
  C        43.3360358497       29.4255791690        2.5804370313
  C        45.4896273205       27.6556941394        5.1438505459
  C        45.4941201529       27.6815323414        6.5655351573
  C        44.8076958014       28.6900678969        7.3121076169
  C        14.8567158567        8.5632684062        7.2692799110
  C        14.8747045100        8.5629399846        4.4566274159
  C        42.9464107710       31.9615335969       13.8038915324
  C        43.6916525402       30.8854859192       13.0901872460
  C        44.6572253882       31.1914765769       12.1188887460
  C        45.2789250601       30.1719854385       11.4011595668
  C        44.9543394876       28.8217007149       11.6378566002
  C        44.0197272714       28.5239261316       12.6475423717
  C        43.3912680693       29.5406038583       13.3596922383
  C        45.5635827782       27.7243768430       10.8526320241
  C        45.5344007124       27.7179449058        9.4313278274
  C        44.8288587866       28.7086788405        8.6782936986
  C        35.0836637937       26.6590699757        8.7280715140
  C        35.1625500663       26.5804946219       11.5639169843
  C        18.1486403640        3.2469453352       13.7015782187
  C        17.4300102499        4.3439332782       12.9922703684
  C        16.4148400767        4.0527009661       12.0686813782
  C        15.7665593339        5.0833416366       11.3932488530
  C        16.1212179860        6.4285584792       11.6159922870
  C        17.1125511874        6.7119139967       12.5732942757
  C        17.7601874403        5.6829766710       13.2530805043
  C        15.4907643813        7.5242785742       10.8435338638
  C        15.4967603927        7.5077376311        9.4223977621
  C        16.1935263490        6.5060295316        8.6757036869
  H        10.6726155937       12.4663843398       11.8988191480
  H        11.6948891222       10.5516219069       10.6569066423
  H        15.3912496544       11.1679432621       12.7679503444
  H        14.3506914308       13.0707259815       14.0132182786
  H        13.3764332633       11.6314279486        9.1961433754
  H        50.3225261712       22.7483625927       11.9818179044
  H        49.3193588432       24.6227522217       10.6756802574
  H        45.6418331749       24.1610139334       12.8584701158
  H        46.6626749003       22.2901432226       14.1667586254
  H        47.6292705746       23.5756319275        9.2410676358
  H        14.8719535293        8.5882567653       12.6034099661
  H        50.2871189007       22.7024291392        4.0654691822
  H        49.2691994540       24.5753301104        5.3655714349
  H        45.6105666891       24.1091860234        3.1512157088
  H        46.6525007234       22.2538059091        1.8370121399
  H        47.6074171011       23.5516247870        6.8019525996
  H        40.6353963758       17.0633457386        3.4171955664
  H        48.6869914762       14.0949451936       15.7948995968
  H        10.6814147310       12.4671594817        4.0989475030
  H        11.6896534744       10.5252518080        5.3027085862
  H        15.3929358403       11.1580156566        3.2097202658
  H        14.3644071972       13.0864842135        1.9943900098
  H        13.3760107917       11.6223326267        6.7581523282
  H        47.9300442956       14.2184494130        1.7157636799
  H        47.7799064255       14.3734285958       14.4900846328
  H        49.0823877754       18.5518554854        2.8720646612
  H        10.4156862214       14.1343856717        0.0038100778
  H        24.4810664551        3.0327534537       11.9082802095
  H        25.6143716585        4.8943222990       10.6787994789
  H        23.2284824687        7.7553377172       12.8286071393
  H        22.1144481783        5.8840541315       14.0602847843
  H        23.8092784600        5.7909229227        9.2448772137
  H        36.4515937552       32.1910053166       11.8904007257
  H        35.3399850147       30.3667658479       10.6081087298
  H        37.3897325403       27.4427305890       13.0170878412
  H        38.5001438511       29.2836031296       14.2861918359
  H        37.0344700658       29.4171451816        9.2720687222
  H        25.7092569976        8.6191851285       12.6389868513
  H        36.5322879279       32.2436032246        4.1808969569
  H        35.4351517038       30.4252890620        5.4794977735
  H        37.4063101685       27.4927574538        3.0130493139
  H        38.4969266215       29.3265043927        1.7248002945
  H        37.0556512699       29.4367132392        6.8237110337
  H        46.1094877793       26.5875189836        3.3905740936
  H        44.6680530523       35.1160708793       15.8089408317
  H        24.4479417972        3.0401220829        4.0811171106
  H        25.5862412623        4.8791079322        5.3263161298
  H        23.1765556698        7.7686022046        3.2430486981
  H        22.0505775272        5.9176441356        1.9971271223
  H        23.8017869024        5.7901188036        6.8062406223
  H        44.9530286358       34.3896482980        1.6997861284
  H        44.9008748546       34.2064677279       14.4856355735
  H        40.6638845430       33.2071923054        2.8567722038
  H        23.1505993747        1.9575720676        0.0096241017
  H        25.7933043250       19.6787849521       11.9347840281
  H        23.6272164920       19.7157068237       10.7000743933
  H        22.3642586881       16.1958827018       12.8239474213
  H        24.5402530998       16.1682514753       14.0517837343
  H        23.7230509116       17.6800667499        9.2432959445
  H        35.1607329350       15.4317422064       12.0099176109
  H        37.2792333415       15.3891475851       10.6877510176
  H        38.6911042354       18.8176915783       12.8677820534
  H        36.5678654512       18.8412267162       14.1905749820
  H        37.2226331818       17.3651078734        9.2382529731
  H        20.3556579575       17.9697661403       12.6645659032
  H        35.1507547976       15.4430137730        4.0976382455
  H        37.2889111381       15.3666965585        5.3853947690
  H        38.7367215244       18.7530940474        3.1628631953
  H        36.5974926718       18.8059776118        1.8689155785
  H        37.2323720828       17.3491496522        6.7985968980
  H        35.2199115489       26.6430713700        3.3708550451
  H        28.5092942905       21.0868355399       15.8864976153
  H        25.7482604096       19.6356748548        4.1586435597
  H        23.5635420716       19.6896833596        5.3735460930
  H        22.3042337052       16.1709171632        3.2464100799
  H        24.4897127504       16.1390919472        2.0274930737
  H        23.7022762232       17.6645168307        6.8026805633
  H        29.0071066816       21.7233810999        1.7484052015
  H        29.1761281804       21.7343704859       14.5526991291
  H        32.0985523319       18.5608179719        2.9949678886
  H        27.4068127185       19.0812508490        0.0893959212
  H        14.8506657869       19.6491409813        4.1433750485
  H        17.0132919286       19.6942797656        5.3866340821
  H        18.3002702836       16.1831659877        3.2618355884
  H        16.1336424628       16.1540315299        2.0181730863
  H        16.9206453237       17.6960109281        6.8525799127
  H        46.0916518487       15.4332126191        4.0645873253
  H        43.9651273184       15.3637248289        5.3675853378
  H        42.5395797921       18.7964754350        3.2026165599
  H        44.6666438036       18.8410330324        1.8888553909
  H        44.0175326156       17.3085920379        6.8262432049
  H        20.2904903773       17.9177940425        3.4270215352
  H        46.0434930658       15.3877304581       12.0262683428
  H        43.9144310214       15.3251542626       10.7283694651
  H        42.5225626496       18.7931981744       12.8578813410
  H        44.6576641862       18.8415748368       14.1576221005
  H        44.0073988016       17.2993346862        9.2653072389
  H        46.1987754570       26.6824749077       12.6181733264
  H        52.7409960709       21.0625499241        0.1997514710
  H        14.8804914798       19.6758402918       11.8952281762
  H        17.0815165397       19.7484385512       10.7150198962
  H        18.3316284302       16.2239560201       12.8390360263
  H        16.1327256678       16.1755352735       14.0288945427
  H        16.9410846016       17.7111619280        9.2901035794
  H        52.3218327249       21.6730947319       14.2894239218
  H        52.0128791268       21.7018074174        1.5007241364
  H        49.0670166544       18.6078291922       13.1991436789
  H        13.2472015617       19.0165093637       15.9721413823
  H        29.9342316896       12.5121067360        4.2802620666
  H        28.8807332091       10.5651030380        5.4391336930
  H        25.2700428687       11.1798485979        3.1851123560
  H        26.3463320539       13.1089740372        2.0128195331
  H        27.1542098981       11.6839166268        6.7968865449
  H        31.0335395488       22.7171036033        4.0781533164
  H        32.0575403462       24.5815043244        5.3868146930
  H        35.6475776383       24.2325287789        3.0354145896
  H        34.6115992384       22.3559832216        1.7501859287
  H        33.7434687269       23.5746063919        6.7497170632
  H        25.7317201345        8.5944327959        3.4032888929
  H        30.9895152772       22.6208553495       11.8383065901
  H        32.0188417940       24.4804250792       10.5371732795
  H        35.5442286067       24.2290464083       12.9998344333
  H        34.5020517557       22.3580352390       14.2818030021
  H        33.7189557268       23.5564578451        9.2017022620
  H        40.5993824025       17.0889469252       12.6474966249
  H        32.5108108967       14.1510179150        0.2684176711
  H        29.8758501293       12.5246389455       11.9055229129
  H        28.8436433658       10.6191413689       10.6655525694
  H        25.1761300717       11.2050027784       12.8335599816
  H        26.2286375551       13.1000361814       14.0810761635
  H        27.1364363988       11.6991407937        9.2362478256
  H        33.2901866754       14.1837876602       14.4262702955
  H        33.4037420936       14.4066955071        1.6144241939
  H        32.1727055963       18.5464375348       13.2006846454
  H        30.2077355940       14.1857754332        0.0893645702
  H        16.1184419895        2.9633211515        4.1347995727
  H        14.9532242583        4.8204190376        5.3276540375
  H        17.3658728417        7.6859937641        3.2150003342
  H        18.5146084643        5.8183418187        2.0151413823
  H        16.7537159503        5.7397781489        6.7765619073
  H        44.8301759861       32.1404678798        3.9804221680
  H        45.9398186219       30.3416723856        5.3098161478
  H        43.6816412579       27.3785002515        3.1591166312
  H        42.5983594965       29.1902862012        1.8167770289
  H        44.2330056823       29.4382646429        6.7736874585
  H        14.8507004034        8.5460011245        3.3684153431
  H        44.9013844425       32.2341594659       11.9282380180
  H        46.0265986790       30.4132449638       10.6486936836
  H        43.7620148464       27.4842240398       12.8382571338
  H        42.6437786061       29.3177890465       14.1171653211
  H        44.2709221967       29.4719803196        9.2128828313
  H        35.1381030178       26.5821130325       12.6520178529
  H        36.6046791771       35.1337273955        0.1858811141
  H        16.1437777517        3.0131015873       11.8990398131
  H        14.9742371982        4.8565064302       10.6831556527
  H        17.3959849123        7.7473902346       12.7502416710
  H        18.5429677167        5.8933342560       13.9779765968
  H        16.7649103592        5.7557739779        9.2141772420
  H        36.2796302335       34.4819841079       14.2678644322
  H        36.3821744113       34.2090756243        1.5058792686
  H        40.5787236007       33.2010517985       13.1498269766
  H        17.4705122925        1.9469750309       15.9690646437
  H        28.8609856676       19.2560771790        4.4200805863
  H        28.8680159446       18.9789142286       11.7012583101
  H        30.5929150091       15.5522740099       11.9282217195
  H        31.1097678610       15.6152074143        4.4997446008
  H        27.8749914747       17.5184621084        6.6589226051
  H        29.0043102905       15.4780407445        6.4597236958
  H        30.2284941466       19.9542017868        9.7570898103
  H        32.0822435410       15.8829317851        9.7600192021
  H        18.8548206999        0.8702808996        4.3390378831
  H        40.5280429303       35.2288275909       11.9472734400
  H        42.3233967074       34.4176574824       11.5867524440
  H        22.0876678506        0.6925152278        4.3562058029
  H        11.5969895475       18.7129041680        4.3874227184
  H        52.2647334685       18.4310445512       11.6723311266
  H        49.2552617555       16.4770609866       11.5794703276
  H        10.1502859703       15.7982025810        4.2979090947
  H        50.8498250648       17.6923383829       11.9492377898
  H        10.0459965675       17.3945257468        4.0571430489
  H        20.2151715367        0.0020026529        4.0469358854
  H        39.1844413046       36.1251710005       11.6824337006
 Ni        30.7832095318       17.7149784404       10.8285714607
 Ni        30.7768966717       16.4446210348        7.7458047564
 Ni        29.6714376465       18.5527153076        7.9061822497
 Ni        30.0543342874       17.5001333621        5.3286218141
  O        10.6498830915       14.3651540692       13.4807022552
  O        12.6131476178       14.6575311400       14.5787953380
  O        49.1477932487       16.8459929816       15.9846800517
  O        50.3501098153       20.9360650963       13.6431463438
  O        48.3484700213       20.5932773634       14.6609014502
  O        11.0513774530       17.0540027769       14.4955226494
  O        50.3210254276       20.8816485333        2.4118953098
  O        48.3467380965       20.5867165494        1.3322203156
  O        49.5435694070       18.2484504506        2.0733938722
  O        12.3588455540       18.6245679003        0.0048497670
  O        48.6931970466       14.1486081429       14.7461789813
  O         8.2098620849       14.2103768978        1.3276386854
  O        10.7353082296       14.5067290598        2.6694418993
  O        12.5717779272       14.5828439624        1.3335935921
  O        22.8447374510        2.0436437370       13.4819741948
  O        21.6051723969        3.5922703565       14.5848472631
  O        42.0581885909       34.1373478038       15.9739556581
  O        37.9814671406       33.1412941269       13.5673136992
  O        39.2176825515       31.5769917533       14.6619383723
  O        20.3084996826        1.0397009933       14.4969109706
  O        38.0257266276       33.1887930310        2.4197843038
  O        39.2198810221       31.5847142211        1.3298570362
  O        40.6524859043       33.7693722251        2.0652027981
  O        18.2554622699        1.3762030407        0.0019806599
  O        44.6222509755       35.1005470958       14.7536565588
  O        24.2054407723        0.0000034427        1.3259115266
  O        22.7532137671        2.0578357499        2.5890302409
  O        21.6248224361        3.5964630503        1.3483510049
  O        27.4951641606       18.7531166737       13.4889630632
  O        26.7628418474       16.9362756943       14.6481972387
  O        30.6662785472       19.4102386235        0.0697273978
  O        33.5868843434       16.2781453958       13.6629398265
  O        34.2744170154       18.1683195088       14.7321792160
  O        29.5721986725       17.0637355385       14.5791934200
  O        33.5573439446       16.3402103329        2.4202765210
  O        34.3011600718       18.2404689385        1.4132677039
  O        31.6490984737       18.3204594290        2.1677365097
  O        30.3169056849       15.1507932267        0.0905445291
  O        28.5559236628       21.0356631397       14.8309023299
  O        28.5140704582       20.9567767417        1.4098710759
  O        27.4570435297       18.6801396389        2.6651641923
  O        26.6936314568       16.9306429975        1.4185845857
  O        13.1488517978       18.6929665670        2.5926354575
  O        13.9194036513       16.9161731219        1.4101641093
  O        50.5957486273       19.3501731089        0.0256583965
  O        47.6832309351       16.3269353740        2.4222313448
  O        46.9505983688       18.1755294813        1.3305714327
  O        11.0695202277       17.0156587442        1.4948337324
  O        47.6759279643       16.3358129186       13.6478345885
  O        46.9263547989       18.2357616973       14.6588028653
  O        49.5684160475       18.3177385642       13.9771933765
  O        10.3185319008       15.1002559552        0.0022056801
  O        52.6707389892       21.0279007865        1.2469354084
  O        12.1467993324       20.8911763775       14.6680934037
  O        13.1080492733       18.6136708494       13.3205226380
  O        13.9570045952       16.9868492328       14.6604828222
  O        29.9645073294       14.5036522987        2.7484475551
  O        28.0810251150       14.6571888138        1.4926945444
  O        32.0860649765       16.8727197048        0.0939688208
  O        30.9651207853       20.9520295205        2.4156069004
  O        32.9469986155       20.6014265536        1.3429000050
  O        29.5628595143       17.0831881511        1.5815943816
  O        30.9006290329       20.8772882110       13.5826844057
  O        32.8786397260       20.5845717181       14.6631966428
  O        31.6844666635       18.2507367619       13.9857717954
  O        28.2910207352       18.6801578089        0.0800387774
  O        32.4887204850       14.2151391524        1.3390503964
  O        32.4021635423       14.2113222237       14.8191325656
  O        29.8702544377       14.4982372717       13.4118008030
  O        28.0390198439       14.5866903975       14.7467872522
  O        17.8891997068        1.9667212654        2.6680310183
  O        18.9562443429        3.5272197616        1.4131430347
  O        39.1685953421       34.1388375465        0.0022646779
  O        43.2803660947       33.0590746909        2.3368708201
  O        42.0350013462       31.5064142981        1.2467076618
  O        20.3177975951        1.0366499682        1.4854430914
  O        43.2761459643       33.1825793232       13.5697682820
  O        42.0054003779       31.5840425527       14.5778604454
  O        40.5791559029       33.7749565993       13.9310311624
  O        22.3672958478        1.3846342580        0.0031209921
  O        36.6725740277       35.0999400528        1.2384344640
  O        16.4453645993        0.0645006022       14.6632145948
  O        17.9364401273        2.0435059977       13.3211823053
  O        18.9190292848        3.5931969354       14.6608623699
  O        29.7461037543       18.8211703378       12.0911258319
  O        29.7330906108       18.9812086315        4.0770360792
  O        31.2245584495       16.2655224099       12.1454031622
  O        31.2657555993       16.4800622735        4.0726451643
  O        31.5875823786       16.6411082195        9.4028420464
  O        29.9179925769       15.7462327299        6.2620616261
  O        30.4603893184       19.0567709967        9.4635303275
  O        28.4809911533       18.2605209134        6.4959098900
  O        39.4568084190       35.2438383038       11.9966906040
  O        19.1417412986        0.0048473366        3.9959062759
  O        41.9696777086       35.1726845438       12.0821145686
  O        21.6914198830       -0.0693329903        3.9011556182
  O        51.3649381086       18.6142939602       12.0003738163
  O        10.7511282628       18.7472249146        3.9100199737
  O        50.0797881476       16.4128175515       12.0866225433
  O         9.5244798377       16.4830705320        3.9963436828
 Zr         9.2961755542       16.0528248485       14.1772473022
 Zr        49.8357822725       16.0068302141        1.7516989935
 Zr        22.0729042858        0.0292588487       14.1844011427
 Zr        42.4605941243       35.1528467603        1.8059355335
 Zr        29.6119628102       19.0762781535       14.2737253859
 Zr        29.5833625020       19.1842743105        1.8739801608
 Zr        11.0373804727       19.0521239671        1.8327499998
 Zr        11.0431641523       19.1549344708       14.2462167326
 Zr        31.3373201248       16.1170728110        1.9134771151
 Zr        31.3992893602       16.0119119116       14.2885128318
 Zr        18.6006828879       -0.0022972636        1.7685608298
 Zr        18.5062166027       -0.0080154653       14.2088488081
 Zr        12.3012179080       16.3235346728       15.9852124946
 Zr        48.6152981271       18.8328829731        0.0155287691
 Zr        20.3149197982        2.4725532137       15.9859101912
 Zr        40.6428324361       32.6862209514       15.9733365674
 Zr        28.3517647560       16.3479023732        0.0879733319
 Zr        32.6271459494       18.8373147981        0.0615911064
  O        28.9334571739       20.9487360471        7.7341323154
  H        29.5782536036       21.3073070165        7.0997995339
  H        28.2490868204       20.5443628056        7.1662909757
