     571
 i =      269, E =     -4761.6789264771
  C        11.8586403438       14.0535807676       13.7364188392
  C        12.4561183930       12.8905467214       13.0181510618
  C        11.7044928577       12.1718918219       12.0762490339
  C        12.2808677330       11.1096574423       11.3839258481
  C        13.6213445378       10.7396329741       11.6118673662
  C        14.3543626218       11.4429319289       12.5856548424
  C        13.7815132236       12.5079347813       13.2771492356
  C        14.2609773766        9.6490058123       10.8384923870
  C        14.2564164034        9.6569849469        9.4167862088
  C        13.7432629625       10.7591119764        8.6628774677
  C        49.1265304650       21.2333455162       13.8747135909
  C        48.5497404333       22.4011636857       13.1475943814
  C        49.2998796896       23.0686407679       12.1667713450
  C        48.7329665474       24.1077694403       11.4335598679
  C        47.4022929359       24.5091541572       11.6619031185
  C        46.6711799539       23.8600433921       12.6751450776
  C        47.2336173658       22.8151508135       13.4045157895
  C        46.7721655659       25.5869200107       10.8646218393
  C        46.7614125315       25.5574067898        9.4428572999
  C        47.2613267585       24.4422986329        8.6993738743
  C        14.8604456378        8.5706982156        8.7035193259
  C        14.8916282317        8.5969761741       11.5151500303
  C        49.1130785684       21.2034092427        2.1504769587
  C        48.5277507541       22.3647527411        2.8775635884
  C        49.2670451585       23.0256794792        3.8703071965
  C        48.6907591370       24.0602840185        4.6017133964
  C        47.3601898787       24.4567327820        4.3637659275
  C        46.6396372617       23.8115866678        3.3405028634
  C        47.2131819766       22.7756309962        2.6087932829
  C        46.7219287077       25.5318483113        5.1547385223
  C        46.7335774935       25.5281741250        6.5764376099
  C        47.2491983639       24.4290511331        7.3328194529
  C        40.6201893798       17.0896737763        7.3140034024
  C        40.6303903443       17.1005662695        4.5043998588
  C        11.8828373702       14.0865559908        2.2905625270
  C        12.4721369018       12.9106604099        2.9947702327
  C        11.7146778715       12.1776511615        3.9210599846
  C        12.2812304787       11.0952097505        4.5895347716
  C        13.6199176407       10.7212003495        4.3574608189
  C        14.3578090041       11.4365215157        3.3964069663
  C        13.7923917056       12.5176611744        2.7236672362
  C        14.2536679938        9.6245601208        5.1279083116
  C        14.2525378958        9.6446201144        6.5497505591
  C        13.7426794483       10.7535621580        7.2968367464
  C        22.5110123842        3.2445534483       13.7468681339
  C        23.2237864679        4.3497166256       13.0442799002
  C        24.2217632375        4.0687964296       12.0994111739
  C        24.8482771367        5.1074232498       11.4153571992
  C        24.4924025445        6.4494477563       11.6557109247
  C        23.5218090731        6.7219729192       12.6370519966
  C        22.8909563152        5.6851175053       13.3197724253
  C        25.0997167263        7.5552344569       10.8798640696
  C        25.0793601681        7.5458426690        9.4580057632
  C        24.3818422677        6.5448550122        8.7097769858
  C        38.3016045244       31.9293793817       13.8445672606
  C        37.5698135269       30.8407196051       13.1363692675
  C        36.6067283347       31.1459487736       12.1623762368
  C        35.9868682725       30.1268013511       11.4448816238
  C        36.3153281229       28.7772392615       11.6795574642
  C        37.2485741874       28.4793654163       12.6903700054
  C        37.8722043027       29.4972491047       13.4071404044
  C        35.7118400996       27.6869302677       10.8811880355
  C        35.7408494041       27.7048515464        9.4597482953
  C        36.4441463123       28.7095699776        8.7231845683
  C        25.7046577830        8.6153598030        8.7392712862
  C        25.6922541899        8.6322234981       11.5516470301
  C        38.3285734944       31.9625595827        2.1611894950
  C        37.6060612586       30.8908672211        2.9033262943
  C        36.6753689329       31.2018983097        3.9064882699
  C        36.0631550618       30.1850512867        4.6362920967
  C        36.3674815312       28.8319495203        4.3863957184
  C        37.2762594370       28.5309190666        3.3534238312
  C        37.8903993770       29.5442385213        2.6246384660
  C        35.7572714545       27.7343970887        5.1704778458
  C        35.7638479915       27.7293555258        6.5925093668
  C        36.4550020879       28.7214527262        7.3566252865
  C        46.1358390003       26.6209624194        7.2865588331
  C        46.0877272564       26.5800387514        4.4786628387
  C        22.4629268011        3.2555110986        2.2615072684
  C        23.1627143684        4.3633451893        2.9812057208
  C        24.1701854975        4.0751798776        3.9156604555
  C        24.8036320780        5.1037943292        4.6091159124
  C        24.4496955694        6.4502585456        4.3908433086
  C        23.4655570045        6.7318572574        3.4244337855
  C        22.8278016164        5.7034411677        2.7311755070
  C        25.0826398609        7.5469734182        5.1658427956
  C        25.0716775183        7.5407562715        6.5886300613
  C        24.3762706239        6.5436068541        7.3430737159
  C        26.6176772499       17.8605357045       13.7775364486
  C        25.3107580525       17.9077109413       13.0536197063
  C        25.0463933042       18.9106759774       12.1073103915
  C        23.8338018836       18.9299026669       11.4206349496
  C        22.8481873474       17.9506305330       11.6594421448
  C        23.1079838716       16.9709343304       12.6365218771
  C        24.3229028648       16.9454374237       13.3197880907
  C        21.5752340503       17.9366485544       10.8945616352
  C        21.5761223606       17.9175002405        9.4720884670
  C        22.7824180152       17.7982277797        8.7122012930
  C        34.4394227343       17.1955724639       13.9132758371
  C        35.7318627355       17.1444761332       13.1693611723
  C        35.9373457289       16.1721470405       12.1781038158
  C        37.1169323534       16.1580762652       11.4393558409
  C        38.1242813493       17.1145649478       11.6722624460
  C        37.9220627483       18.0671278388       12.6891467960
  C        36.7391695851       18.0871503530       13.4247115057
  C        39.3771452643       17.1207347487       10.8827780139
  C        39.3689651590       17.1249796885        9.4607104815
  C        38.1599863154       17.2448908265        8.7055696674
  C        20.3298308928       17.9337713466        8.7629702609
  C        20.3503257048       17.9372380184       11.5764597695
  C        34.4408090922       17.2361271102        2.1927239066
  C        35.7424532981       17.1334290336        2.9125902205
  C        35.9417353228       16.1613827678        3.9042565087
  C        37.1317914520       16.1307673089        4.6271420166
  C        38.1510383218       17.0711060565        4.3789028550
  C        37.9576818420       18.0150989794        3.3527243757
  C        36.7673331687       18.0509114776        2.6329261705
  C        39.4001641736       17.0883109417        5.1722836936
  C        39.3806509666       17.1092159133        6.5938859914
  C        38.1656494887       17.2358287278        7.3388507894
  C        35.1335423815       26.6497688497        7.2959512567
  C        35.1693209701       26.6629155994        4.4866831210
  C        26.5705273573       17.8257922305        2.3316900233
  C        25.2568514555       17.8706154419        3.0394831132
  C        24.9876149540       18.8813409360        3.9746655705
  C        23.7698210799       18.9063052720        4.6484213973
  C        22.7913920448       17.9206324908        4.4097308111
  C        23.0544735456       16.9345434983        3.4417728399
  C        24.2733850989       16.9072757329        2.7668614809
  C        21.5274370043       17.9033478414        5.1821467941
  C        21.5515540332       17.8986199593        6.6035578440
  C        22.7702695681       17.7887241121        7.3459579908
  C        14.0462053527       17.8285261169        2.2940638294
  C        15.3506087906       17.8847556415        3.0199780440
  C        15.6082283879       18.8888474650        3.9663054629
  C        16.8171303099       18.9090369483        4.6594103317
  C        17.8024782633       17.9279748480        4.4281414766
  C        17.5495138803       16.9478556775        3.4499151596
  C        16.3400940287       16.9231592108        2.7583610017
  C        19.0715365368       17.9109767625        5.1971728083
  C        19.0702171243       17.9101763355        6.6196332326
  C        17.8629828464       17.8122450324        7.3806534019
  C        46.8021727352       17.2160193716        2.1619321303
  C        45.5088026184       17.1454495582        2.9019050277
  C        45.3040114015       16.1619643477        3.8822918912
  C        44.1199949561       16.1339868245        4.6145092516
  C        43.1094713101       17.0892202226        4.3892857231
  C        43.3107850443       18.0512627228        3.3808439013
  C        44.4957375627       18.0832077369        2.6493372371
  C        41.8564383028       17.0938439335        5.1796665693
  C        41.8653288655       17.0995291500        6.6019085021
  C        43.0759245596       17.1980928442        7.3574957504
  C        20.3168251860       17.9232473508        7.3281969447
  C        20.2957790178       17.8897155661        4.5150969980
  C        46.7849659995       17.2324822208       13.8811572985
  C        45.4839364732       17.1287404331       13.1609834099
  C        45.2662877030       16.1299558001       12.1995388731
  C        44.0792542807       16.1026714158       11.4714487288
  C        43.0795297087       17.0714718527       11.6864421117
  C        43.2883945424       18.0411401272       12.6851794005
  C        44.4762616642       18.0745133441       13.4088965722
  C        41.8318542352       17.0905982245       10.8909263662
  C        41.8529697925       17.0964602834        9.4695342193
  C        43.0701757972       17.1937099346        8.7243205121
  C        46.1533536222       26.6372566938        8.7211060761
  C        46.1621427470       26.6559954150       11.5307518025
  C        14.0448295671       17.8314598074       13.7036967780
  C        15.3657718807       17.9055088481       13.0127868419
  C        15.6396798615       18.9222702987       12.0859272380
  C        16.8686305594       18.9596818089       11.4310416188
  C        17.8509305766       17.9795443240       11.6776250488
  C        17.5837427729       16.9913545401       12.6424292880
  C        16.3568105527       16.9534564432       13.3007842049
  C        19.1182206330       17.9553524284       10.9089063819
  C        19.0945590918       17.9319625096        9.4874600442
  C        17.8748703369       17.8219401407        8.7466311772
  C        28.7933741838       14.1137730146        2.4001954378
  C        28.1938485139       12.9342802399        3.0879310165
  C        28.9205649686       12.1999178626        4.0365726076
  C        28.3298929335       11.1167498227        4.6830847307
  C        26.9981462169       10.7454992778        4.4072541492
  C        26.2940623716       11.4608206204        3.4218866637
  C        26.8828167079       12.5423555092        2.7721222811
  C        26.3336377760        9.6608708894        5.1661514877
  C        26.3167259663        9.6872225452        6.5871684517
  C        26.8157169149       10.8012812046        7.3339610022
  C        32.1805580667       21.2418745400        2.1508690209
  C        32.7726857612       22.4098415069        2.8677808947
  C        32.0185747198       23.0978078110        3.8313369492
  C        32.5878077103       24.1365329930        4.5615478267
  C        33.9263728811       24.5175749574        4.3458088682
  C        34.6626070541       23.8502462737        3.3490681770
  C        34.0962112877       22.8044041187        2.6227739999
  C        34.5533876113       25.5940442763        5.1461100968
  C        34.5429652170       25.5657681192        6.5674905266
  C        34.0345904187       24.4497914122        7.3041160477
  C        25.7056536006        8.6090769377        7.3045920153
  C        25.6997250311        8.6091763885        4.4912956543
  C        32.1186916745       21.1962776815       13.8432721511
  C        32.7027124630       22.3561171940       13.1084728978
  C        31.9661805532       23.0154116123       12.1123382446
  C        32.5394613557       24.0564951180       11.3864688947
  C        33.8641392929       24.4656567477       11.6363873724
  C        34.5825452412       23.8204328347       12.6611224193
  C        34.0128301072       22.7761949764       13.3847531407
  C        34.5007074452       25.5510237793       10.8554202225
  C        34.5158227752       25.5437698679        9.4333780027
  C        34.0215308064       24.4391712054        8.6706070373
  C        40.6136840079       17.0931727312        8.7488586504
  C        40.6024815819       17.1202202084       11.5590474130
  C        28.7186975856       14.0959116814       13.7794599735
  C        28.1128447898       12.9442944276       13.0481712064
  C        28.8539565648       12.2371284734       12.0889571408
  C        28.2775185560       11.1722907004       11.4008814215
  C        26.9435753849       10.7886836200       11.6456478873
  C        26.2202243598       11.4818341895       12.6343221893
  C        26.7956081574       12.5460218311       13.3258204712
  C        26.3060501934        9.6941765416       10.8751043491
  C        26.3037644554        9.7045246277        9.4532869201
  C        26.8073622963       10.8108478940        8.6995406635
  C        18.1354066091        3.1809394235        2.3222044138
  C        17.4059613335        4.2781945108        3.0207659547
  C        16.3905297561        3.9997810328        3.9485751946
  C        15.7427517634        5.0397355402        4.6120915666
  C        16.0943897749        6.3834819134        4.3721727641
  C        17.0833813277        6.6530485429        3.4080162187
  C        17.7325076968        5.6157364675        2.7429570842
  C        15.4700899413        7.4911885697        5.1352172280
  C        15.4855941905        7.4906412095        6.5569278870
  C        16.1871898729        6.4970607803        7.3101134862
  C        42.9458721157       31.8594422221        2.0779741678
  C        43.6461766936       30.7718140036        2.8219595273
  C        44.5919538894       31.0931248733        3.8078131336
  C        45.1976087301       30.0875612219        4.5554748852
  C        44.8710255123       28.7345074403        4.3407518749
  C        43.9450105010       28.4201773329        3.3277084580
  C        43.3362285933       29.4253263164        2.5796366939
  C        45.4886831629       27.6552514598        5.1439353050
  C        45.4928971689       27.6809341269        6.5656273663
  C        44.8059060354       28.6890628695        7.3122255378
  C        14.8566319460        8.5631456830        7.2692891966
  C        14.8747025393        8.5629066027        4.4566449981
  C        42.9464130395       31.9615246460       13.8037674714
  C        43.6916176351       30.8854327897       13.0903328655
  C        44.6563351443       31.1913185094       12.1181325122
  C        45.2778315349       30.1717152713       11.4004310947
  C        44.9539182344       28.8214015356       11.6379520888
  C        44.0202081430       28.5237546614       12.6485249038
  C        43.3919489782       29.5405346102       13.3606867515
  C        45.5629080722       27.7240079181       10.8526652949
  C        45.5335193940       27.7175053241        9.4313635542
  C        44.8270736703       28.7076421484        8.6784110166
  C        35.1206673825       26.6379383477        8.7306191497
  C        35.1100110191       26.6091840492       11.5403640449
  C        18.1486238725        3.2469237817       13.7015517769
  C        17.4299496506        4.3438170816       12.9922896802
  C        16.4149140825        4.0525211870       12.0685438868
  C        15.7666351488        5.0831470399       11.3930931617
  C        16.1210328594        6.4284082159       11.6160562836
  C        17.1122191372        6.7117924162       12.5735170956
  C        17.7598646835        5.6828963698       13.2533343708
  C        15.4906437176        7.5241419090       10.8435644740
  C        15.4966310462        7.5075773596        9.4224222961
  C        16.1934290544        6.5058947535        8.6757221977
  H        10.6724382503       12.4661870396       11.8990682622
  H        11.6946332920       10.5513107344       10.6572358566
  H        15.3912847024       11.1680842151       12.7676364057
  H        14.3507970585       13.0709787237       14.0128589143
  H        13.3761002441       11.6311671397        9.1961885465
  H        50.3226843242       22.7488037016       11.9822335132
  H        49.3194950850       24.6231575223       10.6760979323
  H        45.6415289501       24.1604730100       12.8579805243
  H        46.6624378340       22.2897095402       14.1663428896
  H        47.6297207362       23.5758588744        9.2410573770
  H        14.8717565448        8.5881180820       12.6034544377
  H        50.2871909889       22.7030371660        4.0650206026
  H        49.2692045537       24.5759025927        5.3650660067
  H        45.6100803048       24.1084983283        3.1517585625
  H        46.6521547843       22.2532163552        1.8375518817
  H        47.6077861926       23.5518459143        6.8019309077
  H        40.6338349332       17.0626992885        3.4167044490
  H        48.6869422620       14.0949403190       15.7948748781
  H        10.6812763723       12.4668689668        4.0986295589
  H        11.6894861665       10.5249135839        5.3023456069
  H        15.3931186024       11.1583786248        3.2101916402
  H        14.3645687857       13.0868711667        1.9948860532
  H        13.3757149027       11.6221023579        6.7581856587
  H        47.9300379548       14.2184575999        1.7157562538
  H        47.7799011189       14.3733135387       14.4900049054
  H        49.0822437545       18.5518067084        2.8719727869
  H        10.4155839317       14.1343809700        0.0038539537
  H        24.4844306017        3.0300826633       11.9116248198
  H        25.6229085738        4.8889009189       10.6834929537
  H        23.2390750335        7.7549766210       12.8289005563
  H        22.1198009695        5.8863354775       14.0593786716
  H        23.8195027702        5.7877230660        9.2484602841
  H        36.3691422448       32.1894363014       11.9695695853
  H        35.2397289789       30.3668712026       10.6915956384
  H        37.5095425960       27.4399662799       12.8784999328
  H        38.6182405380       29.2751277568       14.1664591403
  H        37.0078070087       29.4600657991        9.2696996033
  H        25.7218083474        8.6170735172       12.6396713017
  H        36.4526566537       32.2465798927        4.1114661669
  H        35.3356209306       30.4313997957        5.4065097719
  H        37.5230333354       27.4901764256        3.1542047926
  H        38.6142050272       29.3169552825        1.8458064819
  H        37.0280230342       29.4806536762        6.8321366692
  H        46.1089347548       26.5873049908        3.3906246783
  H        44.6681002248       35.1160282622       15.8088759273
  H        24.4471536752        3.0363556306        4.0804611218
  H        25.5878863789        4.8729752716        5.3269490360
  H        23.1805319829        7.7668722075        3.2469264702
  H        22.0521419618        5.9181813859        1.9996744624
  H        23.8090260414        5.7860798253        6.8100642220
  H        44.9532711272       34.3898404052        1.6998543011
  H        44.9012002268       34.2066164695       14.4854663925
  H        40.6655433140       33.2086946728        2.8580118793
  H        23.1507118034        1.9574481986        0.0097348484
  H        25.8009824674       19.6729414758       11.9267038686
  H        23.6341758209       19.7136882393       10.6929784020
  H        22.3585120473       16.2062206337       12.8302900104
  H        24.5339836332       16.1755119799       14.0583076640
  H        23.7234485319       17.6831193684        9.2422518862
  H        35.1546404187       15.4397088403       11.9958870014
  H        37.2742167617       15.3974846401       10.6777548090
  H        38.6912807664       18.8143518348       12.8730748938
  H        36.5666724413       18.8378064029       14.1925413178
  H        37.2218964704       17.3773114442        9.2372547490
  H        20.3564343437       17.9757623672       12.6643824683
  H        35.1454322951       15.4492133401        4.1081435161
  H        37.2838221613       15.3745158207        5.3940846523
  H        38.7374519414       18.7476403033        3.1549632121
  H        36.5980375204       18.7992148495        1.8625006932
  H        37.2315667729       17.3610266532        6.7986982087
  H        35.1445678867       26.6877076572        3.3988890970
  H        28.5113557404       21.0914299191       15.8909361711
  H        25.7438910455       19.6420791534        4.1536255586
  H        23.5604165276       19.6945729182        5.3683295604
  H        22.3069516465       16.1670157295        3.2517971273
  H        24.4926685474       16.1347153013        2.0336847121
  H        23.7020936860       17.6666289838        6.8019106825
  H        28.9925671592       21.7277251440        1.7576102047
  H        29.1594809217       21.7466228969       14.5484469201
  H        32.0953078205       18.5569974155        3.0007772967
  H        27.4103460057       19.0871841521        0.0918582736
  H        14.8506137154       19.6489894981        4.1433755437
  H        17.0132543753       19.6940400943        5.3866258350
  H        18.2997135246       16.1823250307        3.2625312778
  H        16.1330895043       16.1533363461        2.0187630749
  H        16.9206355958       17.6961292825        6.8531983957
  H        46.0902540783       15.4331331587        4.0644607021
  H        43.9634982102       15.3640964174        5.3669123685
  H        42.5389999189       18.7969118953        3.2013738085
  H        44.6662727600       18.8410079599        1.8881533418
  H        44.0164625520       17.3091654948        6.8255546832
  H        20.2899306922       17.9167296851        3.4268961134
  H        46.0426884155       15.3885644180       12.0249628016
  H        43.9135490527       15.3265111716       10.7274629253
  H        42.5222512480       18.7940738275       12.8580969439
  H        44.6573720079       18.8418845747       14.1575173038
  H        44.0064382937       17.3003003085        9.2645191747
  H        46.1987289390       26.6823867930       12.6182099404
  H        52.7409896285       21.0625577654        0.1997693646
  H        14.8796230903       19.6768207152       11.8955069867
  H        17.0805053593       19.7511053054       10.7153046793
  H        18.3336373962       16.2281350021       12.8400433257
  H        16.1347824411       16.1779681589       14.0298338858
  H        16.9414519135       17.7133270674        9.2907349992
  H        52.3221589256       21.6732044435       14.2893212919
  H        52.0130515861       21.7019298182        1.5007723777
  H        49.0669581377       18.6078207810       13.1991995608
  H        13.2471401165       19.0165657098       15.9721917644
  H        29.9457353076       12.4914932890        4.2536319402
  H        28.8956188860       10.5456745239        5.4160709996
  H        25.2651802457       11.1843303987        3.2008997840
  H        26.3368476889       13.1148606876        2.0263218367
  H        27.1796379567       11.6702393493        6.7942267375
  H        30.9871707475       22.7965157783        3.9993231953
  H        31.9986396135       24.6675616661        5.3060978569
  H        35.6984331350       24.1359024776        3.1775342983
  H        34.6704253017       22.2627239250        1.8746422671
  H        33.6801778180       23.5805916241        6.7574593977
  H        25.7312153307        8.5902729868        3.4033238313
  H        30.9470086473       22.6916697754       11.9141454992
  H        31.9615953361       24.5689119349       10.6204104690
  H        35.6080384592       24.1252923242       12.8592447692
  H        34.5726117273       22.2560752984       14.1585414138
  H        33.6579046227       23.5610397356        9.1965860028
  H        40.5980569202       17.0889573399       12.6469403442
  H        32.5112548778       14.1500977419        0.2677614114
  H        29.8849840878       12.5300763572       11.9041969733
  H        28.8599637687       10.6192241752       10.6671795833
  H        25.1884375699       11.1975954186       12.8307569616
  H        26.2345095086       13.0958844431       14.0777801667
  H        27.1635135679       11.6873856040        9.2327291740
  H        33.2903404608       14.1883483229       14.4279068673
  H        33.4029071307       14.4095603793        1.6145657151
  H        32.1327165674       18.5236381106       13.1724716937
  H        30.2142967124       14.1855119729        0.0862201403
  H        16.1186892792        2.9632404430        4.1351628999
  H        14.9534773615        4.8202763244        5.3279279206
  H        17.3654449951        7.6859635840        3.2145928008
  H        18.5142137606        5.8183866302        2.0147588978
  H        16.7536730769        5.7396573344        6.7766170854
  H        44.8283135821       32.1401912058        3.9819428912
  H        45.9375644856       30.3412685063        5.3113423595
  H        43.6820785939       27.3781365938        3.1577589354
  H        42.5994178688       29.1899383350        1.8151676462
  H        44.2304016377       29.4367116453        6.7739235802
  H        14.8507093010        8.5460145938        3.3684316235
  H        44.9000037563       32.2339861053       11.9268058833
  H        46.0248271205       30.4129138401       10.6472804293
  H        43.7630207909       27.4840434656       12.8398947705
  H        42.6453117536       29.3176685191       14.1189785001
  H        44.2684977796       29.4704841844        9.2129814274
  H        35.0691975100       26.6193310406       12.6279254848
  H        36.6049842951       35.1340686129        0.1857450440
  H        16.1439657676        3.0129278313       11.8986827713
  H        14.9743954567        4.8562580810       10.6829197577
  H        17.3954417924        7.7472893490       12.7506780689
  H        18.5424997728        5.8933237480       13.9783602450
  H        16.7648146132        5.7556158297        9.2141648771
  H        36.2784774071       34.4824327029       14.2682202681
  H        36.3805980225       34.2093170558        1.5048496222
  H        40.5797145991       33.2020733016       13.1486163788
  H        17.4707448454        1.9471194114       15.9689584654
  H        28.8200249448       19.1312434976        4.3727291843
  H        28.8418051550       18.6324855173       11.8545140470
  H        30.4930308560       15.6542076320       11.9406341347
  H        31.1148595979       15.5545012199        4.5130942348
  H        27.9292735911       17.6569383283        6.7036897561
  H        29.1016205299       15.5823219216        6.5663203425
  H        30.1936141008       19.8523847594        9.8768447144
  H        32.0728269156       15.9933480743        9.9853563997
  H        18.8532361481        0.8689499901        4.3404494111
  H        40.5278819855       35.2292350909       11.9470252696
  H        42.3237042173       34.4186405488       11.5858351578
  H        22.0879123405        0.6919468938        4.3568193043
  H        11.5969266028       18.7128167429        4.3874091562
  H        52.2647108807       18.4308875353       11.6724350028
  H        49.2546081485       16.4772467733       11.5797752325
  H        10.1495350010       15.7982568170        4.2982258567
  H        50.8497025562       17.6924642991       11.9492162944
  H        10.0456297749       17.3945142846        4.0571159581
  H        20.2143501649        0.0021598511        4.0472089601
  H        39.1834839826       36.1242713614       11.6811406168
 Ni        30.7748995322       17.7242297558       10.9070960734
 Ni        30.8241898263       16.4724564391        7.9166615985
 Ni        29.8876434013       18.6219329537        7.7501253201
 Ni        30.0144210769       17.4274069367        5.3237480732
  O        10.6499409012       14.3650833711       13.4806217611
  O        12.6130706815       14.6575871180       14.5788185138
  O        49.1478041035       16.8460150401       15.9847105770
  O        50.3500736934       20.9361124551       13.6430954125
  O        48.3484723885       20.5932613167       14.6609166048
  O        11.0512763919       17.0540227665       14.4955130270
  O        50.3209793103       20.8816107295        2.4119115175
  O        48.3466447100       20.5868153941        1.3321945068
  O        49.5435415254       18.2484446816        2.0733385994
  O        12.3588518996       18.6244317193        0.0047986691
  O        48.6931948683       14.1486385865       14.7461815780
  O         8.2098540222       14.2104257422        1.3276440977
  O        10.7353237035       14.5066436889        2.6695216204
  O        12.5717080050       14.5829019000        1.3335630105
  O        22.8448918755        2.0436590459       13.4819871107
  O        21.6056565227        3.5926646425       14.5843576006
  O        42.0581285844       34.1372647090       15.9738405848
  O        37.9816131683       33.1379352417       13.5677059140
  O        39.2180132630       31.5760730022       14.6613973958
  O        20.3083455077        1.0396257995       14.4969307546
  O        38.0250551604       33.1865958828        2.4199151155
  O        39.2191526737       31.5838676429        1.3316340288
  O        40.6522705660       33.7693616855        2.0653579381
  O        18.2555248094        1.3760765806        0.0019124900
  O        44.6222113354       35.1005458925       14.7536366128
  O        24.2053960841        0.0000119790        1.3259317462
  O        22.7531958780        2.0574306611        2.5888443671
  O        21.6249186028        3.5965362454        1.3484823881
  O        27.4976987970       18.7506449961       13.4867471452
  O        26.7613221256       16.9374553918       14.6490537954
  O        30.6700125265       19.4099978153        0.0749886882
  O        33.5825983379       16.2792557020       13.6610891630
  O        34.2751154963       18.1665906270       14.7324267380
  O        29.5714240558       17.0622363938       14.5831506544
  O        33.5534365855       16.3403542522        2.4217935337
  O        34.3005724200       18.2393622152        1.4132468218
  O        31.6494720347       18.3176753922        2.1709755448
  O        30.3181892329       15.1512244996        0.0914277887
  O        28.5557589326       21.0368288928       14.8337546391
  O        28.5143846095       20.9561294399        1.4096406525
  O        27.4575713682       18.6794841149        2.6665061923
  O        26.6934384986       16.9313527209        1.4189973995
  O        13.1488420028       18.6929523618        2.5925115078
  O        13.9194494837       16.9161202730        1.4101796546
  O        50.5956895698       19.3500736263        0.0257202835
  O        47.6829126733       16.3269815760        2.4222822809
  O        46.9505843648       18.1755864606        1.3305781208
  O        11.0694637821       17.0156832050        1.4948460600
  O        47.6756437896       16.3358606138       13.6477023847
  O        46.9262310682       18.2357796848       14.6587552444
  O        49.5684045088       18.3177325032       13.9772183699
  O        10.3186134231       15.1002599418        0.0021975131
  O        52.6707711732       21.0278993910        1.2469355034
  O        12.1468459355       20.8911743879       14.6680906727
  O        13.1080540974       18.6137137508       13.3204569012
  O        13.9571491232       16.9869517382       14.6603901347
  O        29.9636253186       14.4979375450        2.7448285239
  O        28.0799641696       14.6570154510        1.4916621866
  O        32.0859055169       16.8731417906        0.0943953904
  O        30.9661611428       20.9522879133        2.4165935978
  O        32.9470031678       20.6027759643        1.3455274740
  O        29.5631314267       17.0823738070        1.5812164831
  O        30.9054702990       20.8770381878       13.5817290578
  O        32.8803700207       20.5854453554       14.6634358290
  O        31.6878004698       18.2521226184       13.9933952839
  O        28.2921449394       18.6807458725        0.0821933103
  O        32.4885476002       14.2151743832        1.3386139060
  O        32.4012457169       14.2132446483       14.8186959548
  O        29.8735336639       14.5043291515       13.4095356960
  O        28.0408722052       14.5864391396       14.7451746333
  O        17.8891928223        1.9666939569        2.6679074110
  O        18.9563126039        3.5271008906        1.4130452503
  O        39.1686967797       34.1388034903        0.0022858126
  O        43.2801488014       33.0589692896        2.3367926462
  O        42.0345470413       31.5064542050        1.2466784600
  O        20.3176942737        1.0367445948        1.4853263383
  O        43.2759941048       33.1826556760       13.5698692395
  O        42.0053350175       31.5840056107       14.5778484923
  O        40.5790426053       33.7749303572       13.9306246892
  O        22.3673448842        1.3846285499        0.0030615128
  O        36.6727308857       35.0998345549        1.2383590517
  O        16.4455140789        0.0642939911       14.6631893964
  O        17.9364496711        2.0434360029       13.3212587584
  O        18.9191027004        3.5931073943       14.6608920578
  O        29.7671814647       18.7647907501       12.1378604491
  O        29.7391648460       18.9764011692        4.0781200278
  O        31.1757496541       16.3293533280       12.1347966348
  O        31.2181072939       16.4246729879        4.0827383895
  O        31.6785925001       16.7744567382        9.5562597550
  O        30.0331671071       15.8198499402        6.4100006963
  O        30.4140513475       18.9790730571        9.5079070343
  O        28.5873571379       18.3103145604        6.4100107184
  O        39.4568187774       35.2437791622       11.9968414295
  O        19.1411840561        0.0045357350        3.9956508978
  O        41.9697932099       35.1729270109       12.0821993224
  O        21.6913646945       -0.0692928544        3.9010261123
  O        51.3649075297       18.6142802155       12.0003838759
  O        10.7510717412       18.7471858484        3.9099927285
  O        50.0792840949       16.4128348319       12.0866783034
  O         9.5239149054       16.4831719775        3.9963859576
 Zr         9.2960008862       16.0528606228       14.1771964947
 Zr        49.8356743443       16.0068410348        1.7517117215
 Zr        22.0730342876        0.0294946835       14.1841373573
 Zr        42.4607008036       35.1529649920        1.8060299046
 Zr        29.6226443049       19.0860034253       14.2908416500
 Zr        29.5845904856       19.1855400867        1.8845617322
 Zr        11.0373558049       19.0522069717        1.8327643372
 Zr        11.0431344782       19.1550142638       14.2462965536
 Zr        31.3299671504       16.1120305349        1.9129267351
 Zr        31.4005281747       16.0238286594       14.3025113172
 Zr        18.6009286954       -0.0016984008        1.7684335545
 Zr        18.5062522434       -0.0081484713       14.2086026652
 Zr        12.3011460342       16.3236518243       15.9851712033
 Zr        48.6151096197       18.8329178951        0.0154904310
 Zr        20.3151534693        2.4729699169       15.9856115552
 Zr        40.6431737111       32.6865081779       15.9730384691
 Zr        28.3497747031       16.3490433202        0.0876445322
 Zr        32.6334248763       18.8428165129        0.0603523086
  O        29.4092465530       20.8772717896        6.9118159477
  H        30.0389084872       20.9005804186        6.1667581372
  H        28.6592180765       20.3696697564        6.5402352610
