     572
 i =      364, E =     -4746.7699553367
  C        11.8584670794       14.0535538302       13.7365417793
  C        12.4559634320       12.8904441003       13.0183691050
  C        11.7045453556       12.1720581160       12.0760855321
  C        12.2809241999       11.1098566131       11.3837050060
  C        13.6212598998       10.7395292734       11.6119877570
  C        14.3540747722       11.4424852633       12.5861800110
  C        13.7811885630       12.5074415328       13.2777197745
  C        14.2609581204        9.6489998134       10.8385451628
  C        14.2565027728        9.6570585894        9.4168365751
  C        13.7433949792       10.7591919470        8.6628975793
  C        49.1264413790       21.2333324441       13.8746444274
  C        48.5496572360       22.4010941458       13.1475423257
  C        49.2998244333       23.0686423167       12.1667733382
  C        48.7328829343       24.1077118387       11.4335268081
  C        47.4022094557       24.5091141599       11.6618805793
  C        46.6710734200       23.8599584726       12.6750833966
  C        47.2335236293       22.8150865779       13.4044861597
  C        46.7720938831       25.5868618906       10.8645765257
  C        46.7614203200       25.5573805984        9.4428097480
  C        47.2613437282       24.4422768003        8.6993262198
  C        14.8605474600        8.5707795309        8.7035554237
  C        14.8915530726        8.5969074855       11.5151641380
  C        49.1129969892       21.2034384345        2.1504305249
  C        48.5276523988       22.3646788686        2.8775698726
  C        49.2670333531       23.0256924874        3.8702006489
  C        48.6906869445       24.0602202351        4.6016488789
  C        47.3601296847       24.4567143746        4.3636805391
  C        46.6395115369       23.8114309305        3.3405423773
  C        47.2130662800       22.7755298623        2.6087559549
  C        46.7217947028       25.5317485921        5.1546977372
  C        46.7337520256       25.5282329149        6.5763927223
  C        47.2491598701       24.4290100163        7.3327729375
  C        40.6173873881       17.0766956251        7.3190917982
  C        40.6324116867       17.0994146432        4.5092600329
  C        11.8827612084       14.0865231231        2.2904929079
  C        12.4720429737       12.9105415007        2.9946043532
  C        11.7147533529       12.1778091624        3.9212610570
  C        12.2813275017       11.0953723626        4.5897435050
  C        13.6199337419       10.7211704743        4.3574376867
  C        14.3575699431       11.4360999369        3.3958830937
  C        13.7921468186       12.5172430302        2.7231482149
  C        14.2536558985        9.6245393512        5.1279173591
  C        14.2526742057        9.6446850433        6.5497634227
  C        13.7428492690       10.7536560251        7.2968483550
  C        22.5106393455        3.2448677781       13.7468326968
  C        23.2220214034        4.3512348829       13.0444110640
  C        24.2181335778        4.0727219636       12.0969005581
  C        24.8422925010        5.1131046387       11.4131832853
  C        24.4859742999        6.4544653154       11.6566453513
  C        23.5176075143        6.7245401965       12.6408079517
  C        22.8890105857        5.6859855566       13.3229759009
  C        25.0898348859        7.5623548013       10.8808902640
  C        25.0640104390        7.5559032388        9.4590599709
  C        24.3666551707        6.5545845820        8.7110466917
  C        38.3018472943       31.9284869097       13.8439792922
  C        37.5711898710       30.8391951874       13.1353018374
  C        36.6109423012       31.1431622600       12.1580321041
  C        35.9927729213       30.1231379150       11.4400788538
  C        36.3198190202       28.7736112048       11.6773419823
  C        37.2500163502       28.4771676774       12.6915036757
  C        37.8723148478       29.4958416067       13.4084210570
  C        35.7184729602       27.6816517906       10.8790972394
  C        35.7517825871       27.6965478296        9.4575945087
  C        36.4544734013       28.7014125092        8.7206934805
  C        25.6852225942        8.6276878758        8.7401776854
  C        25.6850768125        8.6379510647       11.5525831403
  C        38.3283536110       31.9618535623        2.1611412903
  C        37.6064335995       30.8887464506        2.9019777576
  C        36.6771673799       31.1968864576        3.9073885688
  C        36.0671767936       30.1779968913        4.6363956704
  C        36.3722890150       28.8254708773        4.3838723221
  C        37.2788063086       28.5273899921        3.3479912810
  C        37.8907729244       29.5426653681        2.6200600974
  C        35.7661789577       27.7255184401        5.1681642659
  C        35.7761585026       27.7190715761        6.5902500012
  C        36.4655933075       28.7125497155        7.3540618329
  C        46.1358280619       26.6209224020        7.2865038343
  C        46.0876711306       26.5799832361        4.4786193845
  C        22.4620428366        3.2560299796        2.2618711819
  C        23.1589035030        4.3656136213        2.9821274086
  C        24.1649664804        4.0808215041        3.9190772899
  C        24.7948558812        5.1117949918        4.6124950769
  C        24.4387417246        6.4573524821        4.3918193588
  C        23.4560779389        6.7355159641        3.4229146695
  C        22.8218084355        5.7048144157        2.7298417099
  C        25.0678635599        7.5565699755        5.1668204568
  C        25.0535423951        7.5522615051        6.5896544563
  C        24.3597962468        6.5540592157        7.3442854628
  C        26.6386389715       17.8270757155       13.7425778427
  C        25.3286070137       17.8819884618       13.0258332531
  C        25.0661095650       18.8816526249       12.0754023175
  C        23.8470952190       18.9092615532       11.4005869727
  C        22.8542193390       17.9401852813       11.6525687770
  C        23.1126956889       16.9649177279       12.6343972331
  C        24.3323933093       16.9330058377       13.3087198891
  C        21.5785948446       17.9297672919       10.8923438631
  C        21.5783093788       17.9086038207        9.4698754673
  C        22.7831996144       17.7808895173        8.7089188941
  C        34.4246428438       17.2194291490       13.9074764327
  C        35.7157620708       17.1515424301       13.1647212614
  C        35.9117754267       16.1820467920       12.1688678411
  C        37.0939869592       16.1568227869       11.4340082898
  C        38.1127086565       17.0999102024       11.6739045281
  C        37.9190348234       18.0490224297       12.6960269356
  C        36.7348878420       18.0794025528       13.4287498732
  C        39.3672801219       17.1001058541       10.8864152529
  C        39.3617875536       17.1070600436        9.4640141254
  C        38.1547033595       17.2314141874        8.7064353514
  C        20.3316760283       17.9299583196        8.7617035758
  C        20.3541417431       17.9343568022       11.5754995986
  C        34.4425419777       17.2382691429        2.1892157536
  C        35.7441006444       17.1364320743        2.9110595909
  C        35.9433267764       16.1616303583        3.9000193185
  C        37.1329888226       16.1291173399        4.6236398855
  C        38.1522099777       17.0706021747        4.3795244691
  C        37.9585823487       18.0182410005        3.3566898780
  C        36.7685175548       18.0556799879        2.6359072428
  C        39.4007834603       17.0848932384        5.1746642855
  C        39.3792084504       17.0999806371        6.5965244077
  C        38.1630963902       17.2260242305        7.3396681016
  C        35.1504165366       26.6370182215        7.2939622996
  C        35.1782722518       26.6536877666        4.4848645214
  C        26.5733759191       17.8274713628        2.3290162030
  C        25.2588967182       17.8705722715        3.0379523308
  C        24.9940744512       18.8755311573        3.9807851390
  C        23.7759267271       18.9001821065        4.6545763402
  C        22.7929700172       17.9206669894        4.4081805362
  C        23.0526865941       16.9401730363        3.4336851712
  C        24.2718440142       16.9128971630        2.7589178247
  C        21.5285093787       17.9030996911        5.1800514765
  C        21.5522044879       17.8933932211        6.6013877736
  C        22.7704307415       17.7739438047        7.3428607505
  C        14.0461643513       17.8288687744        2.2938326587
  C        15.3508942405       17.8860207579        3.0195898304
  C        15.6085969715       18.8913056617        3.9646126974
  C        16.8176605014       18.9126239628        4.6575355677
  C        17.8030124362       17.9313842306        4.4273229316
  C        17.5499613821       16.9499279927        3.4504468233
  C        16.3403942126       16.9241757642        2.7591076714
  C        19.0723070884       17.9143639185        5.1962119802
  C        19.0711745083       17.9122748175        6.6187708764
  C        17.8641807325       17.8169220664        7.3805534954
  C        46.8021324075       17.2165866241        2.1635060855
  C        45.5100635363       17.1466996457        2.9063038370
  C        45.3064958830       16.1626092246        3.8865282447
  C        44.1232990026       16.1334298644        4.6202348810
  C        43.1116636952       17.0881655135        4.3972664679
  C        43.3124219318       18.0517185635        3.3899391901
  C        44.4964258357       18.0847443906        2.6566950443
  C        41.8575870758       17.0898561211        5.1866325528
  C        41.8639092989       17.0889731088        6.6091414342
  C        43.0729328499       17.1844635237        7.3676643462
  C        20.3180229309       17.9210494184        7.3268323583
  C        20.2963781468       17.8933921716        4.5136352661
  C        46.7826564390       17.2308157057       13.8824875717
  C        45.4792368345       17.1218135644       13.1662361955
  C        45.2612877184       16.1192308834       12.2085660196
  C        44.0727637768       16.0865115836       11.4828402743
  C        43.0705309731       17.0532400477       11.6962009856
  C        43.2793127875       18.0260933792       12.6920521863
  C        44.4689006718       18.0650831645       13.4132814183
  C        41.8228880292       17.0693325839       10.8992245051
  C        41.8461576389       17.0768837315        9.4775658575
  C        43.0646215611       17.1756624423        8.7344958602
  C        46.1535263064       26.6373140105        8.7210450168
  C        46.1619836355       26.6558926488       11.5307041439
  C        14.0452400583       17.8316424303       13.7035215781
  C        15.3669525450       17.9057088775       13.0126160668
  C        15.6426531010       18.9235826328       12.0874387159
  C        16.8721632345       18.9610453223       11.4331712093
  C        17.8537482435       17.9796933758       11.6782317668
  C        17.5847435864       16.9902450654       12.6413428424
  C        16.3573671988       16.9525362002       13.2992711152
  C        19.1212995535       17.9545031443       10.9089602491
  C        19.0968759354       17.9316853388        9.4872290557
  C        17.8766510752       17.8256788931        8.7466207395
  C        28.7934468736       14.1169078004        2.4013252567
  C        28.1906185778       12.9390773699        3.0897842702
  C        28.9085983359       12.2123273243        4.0507666764
  C        28.3134781371       11.1312309600        4.6968200375
  C        26.9855594113       10.7547991485        4.4090760758
  C        26.2904162034       11.4628561615        3.4121702228
  C        26.8838171290       12.5419351839        2.7625631133
  C        26.3161896005        9.6725957821        5.1672402571
  C        26.2935750899        9.7017352636        6.5882131565
  C        26.7865516363       10.8185586894        7.3349858465
  C        32.1815218708       21.2374993765        2.1491815015
  C        32.7776572472       22.4011137502        2.8684648702
  C        32.0360470659       23.0688706741        3.8551467605
  C        32.6088008533       24.1075915127        4.5823677113
  C        33.9384741240       24.5059223857        4.3445019615
  C        34.6623671770       23.8557908077        3.3272233060
  C        34.0923222309       22.8116839383        2.6014772090
  C        34.5684008702       25.5809445126        5.1442432622
  C        34.5644897835       25.5500867710        6.5659652299
  C        34.0670982977       24.4294629582        7.3033175565
  C        25.6844419680        8.6224558753        7.3055278613
  C        25.6860211456        8.6183726217        4.4923937953
  C        32.1165270260       21.1927711922       13.8365632562
  C        32.6991527956       22.3538054884       13.1038521181
  C        31.9722221656       23.0029033496       12.0940827816
  C        32.5496552137       24.0428013371       11.3697955597
  C        33.8689549261       24.4607480706       11.6340417186
  C        34.5769893565       23.8258294700       12.6724497891
  C        34.0034064651       22.7831296302       13.3948158000
  C        34.5100848394       25.5438096538       10.8538033649
  C        34.5340770536       25.5312618301        9.4318277291
  C        34.0520799805       24.4206007822        8.6698688271
  C        40.6080879648       17.0754284799        8.7543227114
  C        40.5919572528       17.0977337225       11.5647671928
  C        28.7203657715       14.0982122624       13.7790247022
  C        28.1143813558       12.9462403108       13.0482785660
  C        28.8491784236       12.2439178309       12.0806401016
  C        28.2685935159       11.1812158589       11.3924603368
  C        26.9369946738       10.7944260061       11.6457338988
  C        26.2205983468       11.4823411019       12.6430991794
  C        26.7998047111       12.5445384191       13.3342198891
  C        26.2948543499        9.7021766538       10.8757609000
  C        26.2846192447        9.7167118756        9.4540748323
  C        26.7806730118       10.8266737310        8.7005954921
  C        18.1354075778        3.1807989001        2.3222274038
  C        17.4059910017        4.2781348685        3.0208112803
  C        16.3904701853        3.9997653866        3.9485200044
  C        15.7427283087        5.0397331001        4.6120612176
  C        16.0944669241        6.3834589235        4.3722101092
  C        17.0835857812        6.6530014177        3.4081816965
  C        17.7326735822        5.6156578072        2.7431149594
  C        15.4702127998        7.4912229642        5.1352447422
  C        15.4857338926        7.4907135148        6.5569623943
  C        16.1873440833        6.4971469967        7.3101519013
  C        42.9458996870       31.8594218687        2.0779477025
  C        43.6462535778       30.7717923436        2.8218700416
  C        44.5921729587       31.0930640540        3.8075995770
  C        45.1978757759       30.0874976310        4.5552209255
  C        44.8710268209       28.7344791301        4.3406891246
  C        43.9447142055       28.4201617684        3.3279240861
  C        43.3359093095       29.4253372069        2.5799139167
  C        45.4886680167       27.6552169294        5.1438864443
  C        45.4930991644       27.6810210247        6.5655723718
  C        44.8060535545       28.6891099490        7.3121714671
  C        14.8567907256        8.5632330351        7.2693206700
  C        14.8747103018        8.5628740834        4.4566617159
  C        42.9464285592       31.9614386158       13.8038194208
  C        43.6915194284       30.8853647867       13.0902533013
  C        44.6565046555       31.1912528612       12.1183199783
  C        45.2779890796       30.1716576140       11.4005910316
  C        44.9537750633       28.8213655959       11.6378381895
  C        44.0197955159       28.5236981338       12.6481520274
  C        43.3915756938       29.5404808541       13.3603407402
  C        45.5629264663       27.7240026713       10.8526178679
  C        45.5335331167       27.7174640931        9.4313171073
  C        44.8272961426       28.7077467805        8.6783541415
  C        35.1365421026       26.6265009138        8.7287311025
  C        35.1142959024       26.6052663796       11.5385054838
  C        18.1485426472        3.2467731264       13.7015736759
  C        17.4298687144        4.3437240308       12.9922916878
  C        16.4148001813        4.0524712954       12.0685824799
  C        15.7664629616        5.0831258792       11.3932115096
  C        16.1210537761        6.4283533938       11.6160215588
  C        17.1122416396        6.7117042825       12.5734794495
  C        17.7599534801        5.6827788720       13.2532023325
  C        15.4906487130        7.5241249897       10.8435833005
  C        15.4967302273        7.5076471518        9.4224442457
  C        16.1935563773        6.5059767558        8.6757589481
  H        10.6725805794       12.4665464137       11.8986592989
  H        11.6947567058       10.5517466748       10.6567796489
  H        15.3908431235       11.1673035315       12.7685189250
  H        14.3503281444       13.0701404366       14.0138059296
  H        13.3762437956       11.6312625390        9.1961958861
  H        50.3226236685       22.7488072385       11.9822341493
  H        49.3194027482       24.6231466140       10.6760945437
  H        45.6414111856       24.1603661090       12.8579187117
  H        46.6622802480       22.2896333883       14.1662638314
  H        47.6296085034       23.5757784786        9.2410031145
  H        14.8715841853        8.5879526804       12.6034639511
  H        50.2871740500       22.7030578941        4.0649278856
  H        49.2691248848       24.5758911977        5.3649667893
  H        45.6099255305       24.1082738013        3.1518318660
  H        46.6519513078       22.2530611252        1.8376105212
  H        47.6077080470       23.5517827375        6.8018999302
  H        40.6377354290       17.0662247401        3.4214142296
  H        48.6868795186       14.0949664248       15.7948361047
  H        10.6814334764       12.4672108069        4.0990437080
  H        11.6896410523       10.5253391579        5.3028206964
  H        15.3927623821       11.1576861566        3.2094062927
  H        14.3641928249       13.0861170949        1.9940015351
  H        13.3758908967       11.6222178468        6.7582130098
  H        47.9299809361       14.2182553761        1.7157457927
  H        47.7798420767       14.3733267492       14.4899186941
  H        49.0821106741       18.5518320558        2.8719830532
  H        10.4154703874       14.1344610954        0.0037940091
  H        24.4811917110        3.0345337242       11.9066620506
  H        25.6152648799        4.8963953608       10.6790226803
  H        23.2345908751        7.7569752934       12.8352224630
  H        22.1193852933        5.8852921955       14.0646723528
  H        23.8063415619        5.7960919579        9.2499359001
  H        36.3739807209       32.1864052010       11.9630678223
  H        35.2480727514       30.3626290379       10.6842083934
  H        37.5101418040       27.4379820353       12.8819867111
  H        38.6161533874       29.2742744147       14.1700684045
  H        37.0163727954       29.4534492196        9.2668958852
  H        25.7203094253        8.6195887512       12.6403921561
  H        36.4538329897       32.2409408719        4.1149350611
  H        35.3410817822       30.4224079716        5.4085716359
  H        37.5260354127       27.4872547554        3.1461650441
  H        38.6131745967       29.3172558350        1.8393901128
  H        37.0371577499       29.4726890095        6.8293569713
  H        46.1086889528       26.5871568548        3.3905761245
  H        44.6680898763       35.1160384258       15.8088515335
  H        24.4438471569        3.0428134845        4.0859062570
  H        25.5780337777        4.8834391336        5.3322968154
  H        23.1693342147        7.7696953110        3.2433069162
  H        22.0472599057        5.9170319246        1.9964508383
  H        23.7937421991        5.7955669118        6.8113342622
  H        44.9532766086       34.3899334176        1.7000013307
  H        44.9011425048       34.2066096174       14.4854455357
  H        40.6653208547       33.2083888950        2.8578649623
  H        23.1505324687        1.9575527656        0.0098457031
  H        25.8260601833       19.6364303632       11.8853074515
  H        23.6475319274       19.6916127945       10.6713451371
  H        22.3579400756       16.2082711882       12.8390852904
  H        24.5413923081       16.1672783899       14.0522151405
  H        23.7234831671       17.6568434612        9.2381050934
  H        35.1205271870       15.4604856293       11.9796012606
  H        37.2437243507       15.3978332932       10.6693305720
  H        38.6963106311       18.7863226706       12.8859327913
  H        36.5701079366       18.8276019334       14.2006541990
  H        37.2154875638       17.3655670541        9.2357093119
  H        20.3610956661       17.9736322292       12.6634106110
  H        35.1467751590       15.4489899048        4.1013891030
  H        37.2845500583       15.3704568367        5.3883048286
  H        38.7376232218       18.7524634553        3.1622079183
  H        36.5990034556       18.8069566003        1.8683607482
  H        37.2302284316       17.3548025041        6.7982109798
  H        35.1483396708       26.6809752934        3.3972550395
  H        28.5158463675       21.0742485040       15.8820050217
  H        25.7544819376       19.6313099020        4.1650734024
  H        23.5696169028       19.6843661951        5.3798738759
  H        22.3022951911       16.1768606221        3.2380213901
  H        24.4884879666       16.1444811882        2.0206102984
  H        23.7006634141       17.6454888518        6.7975711085
  H        29.0022541394       21.7224724246        1.7498229783
  H        29.1581443954       21.7428696935       14.5470203074
  H        32.0821167345       18.5746822101        2.9930630062
  H        27.4093897437       19.0768258401        0.0848786927
  H        14.8508812199       19.6515476873        4.1408552303
  H        17.0137390403       19.6986414167        5.3836810637
  H        18.3001646295       16.1841506247        3.2640450312
  H        16.1333306807       16.1533325464        2.0205785207
  H        16.9211615176       17.7041007391        6.8535511174
  H        46.0929043445       15.4335467629        4.0670605636
  H        43.9681028785       15.3621699359        5.3715064856
  H        42.5403980561       18.7975205750        3.2120647290
  H        44.6653798396       18.8435498242        1.8961338453
  H        44.0146296358       17.2970543592        6.8380595873
  H        20.2899209711       17.9230039147        3.4254993916
  H        46.0390875180       15.3792412031       12.0342473290
  H        43.9081917944       15.3076273120       10.7414372344
  H        42.5117942857       18.7777680051       12.8644551585
  H        44.6489409949       18.8354817860       14.1591038483
  H        44.0000429816       17.2803724139        9.2765040241
  H        46.1984408970       26.6822337762       12.6181673315
  H        52.7408950360       21.0625676250        0.1997675063
  H        14.8834669194       19.6791731708       11.8975625583
  H        17.0846596066       19.7536042498       10.7188523742
  H        18.3334655867       16.2256274028       12.8380617745
  H        16.1345630172       16.1759296064       14.0269224268
  H        16.9430450073       17.7196368539        9.2908843747
  H        52.3218295419       21.6730526127       14.2894121366
  H        52.0128364083       21.7017761695        1.5007927673
  H        49.0661349204       18.6074391373       13.1993566904
  H        13.2469073751       19.0168770463       15.9720918155
  H        29.9298431595       12.5090169674        4.2790351349
  H        28.8728677228       10.5659833425        5.4390992010
  H        25.2645451283       11.1829121022        3.1816431792
  H        26.3443775693       13.1088723778        2.0078509183
  H        27.1457224799       11.6894851272        6.7951848132
  H        31.0154957077       22.7471764913        4.0480406223
  H        32.0291254086       24.6241777947        5.3441456172
  H        35.6918995931       24.1532068215        3.1387171485
  H        34.6572393865       22.2837811375        1.8366353699
  H        33.7224029139       23.5555143828        6.7577815392
  H        25.7220588499        8.5967978586        3.4045943842
  H        30.9583348027       22.6709756435       11.8830856387
  H        31.9796507940       24.5472049833       10.5927039394
  H        35.5982357441       24.1370624152       12.8822068826
  H        34.5560417883       22.2706912747       14.1787714056
  H        33.6967402228       23.5391365868        9.1961030928
  H        40.5857118318       17.0656074788       12.6526551381
  H        32.5079149431       14.1576052073        0.2674893886
  H        29.8785099820       12.5387090043       11.8891160545
  H        28.8461084691       10.6322526124       10.6518043884
  H        25.1908933693       11.1956202967       12.8467372995
  H        26.2437646577       13.0902891283       14.0928722988
  H        27.1339917488       11.7041469328        9.2341035115
  H        33.2898524368       14.1896287830       14.4247538224
  H        33.4038063162       14.4081378567        1.6115730960
  H        32.1238964202       18.5018761466       13.0951094213
  H        30.2126547332       14.1926194232        0.0763019386
  H        16.1185402829        2.9632415341        4.1350312235
  H        14.9533809292        4.8202972877        5.3278235112
  H        17.3657490754        7.6859051601        3.2148297127
  H        18.5144562629        5.8182408714        2.0149759648
  H        16.7537756481        5.7397252091        6.7766306162
  H        44.8287551388       32.1401114235        3.9815557778
  H        45.9380143198       30.3411611684        5.3109268104
  H        43.6815011576       27.3781558120        3.1582055007
  H        42.5988677658       29.1899697394        1.8156681925
  H        44.2306149983       29.4367954136        6.7738445027
  H        14.8506137094        8.5458669671        3.3684498645
  H        44.9003703157       32.2339079544       11.9271613085
  H        46.0251522528       30.4128171557       10.6475884810
  H        43.7623018835       27.4840171168       12.8392786626
  H        42.6446735930       29.3176424693       14.1183773676
  H        44.2686621481       29.4705554288        9.2129201993
  H        35.0676073034       26.6191025094       12.6258025373
  H        36.6049722131       35.1338892872        0.1858427235
  H        16.1437535201        3.0128860894       11.8988126508
  H        14.9742102435        4.8562510603       10.6830523478
  H        17.3955678825        7.7471904326       12.7505340090
  H        18.5426399304        5.8931456492       13.9781961479
  H        16.7648601811        5.7556493983        9.2142168522
  H        36.2785045172       34.4821900101       14.2682670423
  H        36.3806059013       34.2092696940        1.5050856036
  H        40.5795502988       33.2017945725       13.1487103776
  H        17.4707690161        1.9467510559       15.9689419894
  H        29.0149425014       19.2945133229        4.5192281118
  H        28.8445835685       18.4815941498       11.7773017223
  H        30.4751837301       15.6511196738       11.8363753696
  H        31.1662067483       15.5348890616        4.4933580130
  H        27.7503530001       17.8241105674        6.3264057933
  H        29.0814340954       15.5502018050        6.7265761121
  H        30.0697960545       19.6973857657        9.9736034008
  H        32.2101559207       16.0026669238       10.0027083255
  H        18.8530165208        0.8687264029        4.3404731978
  H        40.5278989837       35.2291895365       11.9470866620
  H        42.3235715047       34.4184609157       11.5859464599
  H        22.0878924069        0.6921001991        4.3565788502
  H        11.5970419179       18.7131233391        4.3873467250
  H        52.2646025520       18.4308389811       11.6723597926
  H        49.2547570631       16.4771384239       11.5795296280
  H        10.1506695438       15.7981325684        4.2976841673
  H        50.8495553840       17.6924748765       11.9492258021
  H        10.0461526771       17.3944944010        4.0571611540
  H        20.2141111485        0.0020520878        4.0472234916
  H        39.1834902167       36.1242591708       11.6812835883
 Ni        30.8190390165       17.6972947440       10.6673173657
 Ni        30.9015823566       16.4209825580        7.9909744249
 Ni        29.4554491976       18.2929365631        8.0772173078
 Ni        30.0995940016       17.4247263266        5.4083424663
  O        10.6498497093       14.3651833482       13.4806962239
  O        12.6131367397       14.6576063876       14.5787776881
  O        49.1476531615       16.8460645928       15.9846259046
  O        50.3500800015       20.9360759725       13.6432213649
  O        48.3484757310       20.5932230710       14.6609156734
  O        11.0512338750       17.0540682305       14.4954574636
  O        50.3209625833       20.8816172153        2.4118555257
  O        48.3467161402       20.5866729360        1.3321679475
  O        49.5434379855       18.2484560652        2.0733728466
  O        12.3587469208       18.6245239361        0.0048105560
  O        48.6931632942       14.1486556511       14.7461393045
  O         8.2098325754       14.2104004124        1.3276573710
  O        10.7353029157       14.5067067792        2.6694445185
  O        12.5717908181       14.5828799468        1.3335678646
  O        22.8450157880        2.0441539728       13.4818535220
  O        21.6054223383        3.5925020026       14.5846414486
  O        42.0580443896       34.1372105227       15.9738203211
  O        37.9814976613       33.1370913248       13.5674724908
  O        39.2180539170       31.5759183161       14.6614218916
  O        20.3083692917        1.0395091413       14.4968625580
  O        38.0247547578       33.1859562034        2.4201135076
  O        39.2192397770       31.5839290637        1.3314542901
  O        40.6522718317       33.7692639057        2.0653543982
  O        18.2556065212        1.3757978619        0.0019003281
  O        44.6221879746       35.1005478895       14.7536185209
  O        24.2053671069        0.0000273852        1.3259467671
  O        22.7531628033        2.0581324374        2.5891015986
  O        21.6246596610        3.5963655865        1.3480140851
  O        27.5410946642       18.6825765068       13.4079182704
  O        26.7643024146       16.9362780262       14.6464934446
  O        30.6631257058       19.4024810375        0.0189755266
  O        33.5448766255       16.3290569599       13.6496884898
  O        34.2751121495       18.1781826548       14.7383487683
  O        29.5762295630       17.0654455239       14.5705801062
  O        33.5576723044       16.3402237028        2.4173221727
  O        34.2995222821       18.2414562447        1.4113750665
  O        31.6480459557       18.3183568738        2.1619169299
  O        30.3212207470       15.1578007489        0.0857227320
  O        28.5555430386       21.0296136692       14.8254315448
  O        28.5163363603       20.9528428454        1.4077406255
  O        27.4578263476       18.6802809931        2.6640540835
  O        26.6946184212       16.9300199139        1.4169748494
  O        13.1488248536       18.6930599630        2.5926337581
  O        13.9195604431       16.9162299712        1.4102431946
  O        50.5954290661       19.3501029634        0.0255522768
  O        47.6829987420       16.3270746618        2.4223652771
  O        46.9501314796       18.1754080297        1.3309793719
  O        11.0694169086       17.0156807868        1.4948265614
  O        47.6748898358       16.3358940421       13.6477727374
  O        46.9249728534       18.2357175822       14.6580739133
  O        49.5681784551       18.3177383432       13.9771505466
  O        10.3184673052       15.1003499604        0.0021706423
  O        52.6707238285       21.0279016339        1.2469420714
  O        12.1467913435       20.8911074530       14.6680501054
  O        13.1083056958       18.6137101698       13.3203795932
  O        13.9575260250       16.9871191407       14.6601307046
  O        29.9631457231       14.5012612432        2.7463147014
  O        28.0806714210       14.6580107566        1.4903487363
  O        32.0785489687       16.8715466291        0.0778337307
  O        30.9657144764       20.9501102816        2.4129780602
  O        32.9461354479       20.5989287597        1.3409632190
  O        29.5646153325       17.0823385600        1.5810919958
  O        30.9016502183       20.8709271272       13.5721851872
  O        32.8763746961       20.5858075950       14.6593615166
  O        31.6812015700       18.2500003140       13.9228244516
  O        28.2948347403       18.6782260567        0.0696127408
  O        32.4886303438       14.2154390413        1.3367720141
  O        32.3990765567       14.2203574688       14.8113091506
  O        29.8749165780       14.5081072653       13.4061715875
  O        28.0421471500       14.5877237166       14.7443147801
  O        17.8891936771        1.9666112001        2.6679467912
  O        18.9562334348        3.5271314401        1.4130737544
  O        39.1686896880       34.1387153185        0.0022580853
  O        43.2802279066       33.0589561750        2.3367823817
  O        42.0345413381       31.5064659315        1.2466987741
  O        20.3176124997        1.0366091948        1.4854181013
  O        43.2760716845       33.1825463853       13.5697906616
  O        42.0053027844       31.5841069839       14.5778889976
  O        40.5789736413       33.7748275678       13.9305908003
  O        22.3672527371        1.3845856021        0.0030523619
  O        36.6727283145       35.0997650163        1.2384226148
  O        16.4454987779        0.0641699710       14.6631265291
  O        17.9363976917        2.0433088975       13.3212835164
  O        18.9190318694        3.5931165672       14.6608371690
  O        29.7694056104       18.7568998583       11.9279693848
  O        29.7853924627       18.9040664437        4.0641089251
  O        31.1710493713       16.3198682001       11.9940813529
  O        31.2981225572       16.4111512943        4.0841243519
  O        31.9365360509       16.7838819442        9.4819562442
  O        30.0066892392       15.7511639310        6.5045045666
  O        30.5551189257       19.0569149635        9.4142047256
  O        28.5859660914       18.3113774396        6.4151015888
  O        39.4568274014       35.2437315467       11.9968876487
  O        19.1410011817        0.0043193464        3.9957015549
  O        41.9697784457       35.1729158229       12.0821482733
  O        21.6913459833       -0.0692430188        3.9009607533
  O        51.3648553322       18.6142829321       12.0003761201
  O        10.7511613422       18.7472828772        3.9099953742
  O        50.0793005308       16.4128446493       12.0866685598
  O         9.5247842388       16.4830089491        3.9963237361
 Zr         9.2955618160       16.0530107219       14.1771442721
 Zr        49.8352938778       16.0068860592        1.7517664277
 Zr        22.0729985074        0.0292876830       14.1841363435
 Zr        42.4606564092       35.1528502694        1.8060007697
 Zr        29.6338657180       19.0788538011       14.2309140885
 Zr        29.5820786113       19.1803415055        1.8865532521
 Zr        11.0368745951       19.0522446143        1.8326302317
 Zr        11.0426238873       19.1550840099       14.2463215844
 Zr        31.3387956701       16.1134018467        1.9194519282
 Zr        31.3938552901       16.0291994905       14.2631009266
 Zr        18.6008248353       -0.0022002058        1.7684859794
 Zr        18.5061658151       -0.0086280847       14.2085466052
 Zr        12.3007473256       16.3236135791       15.9851156758
 Zr        48.6143471423       18.8327901817        0.0153425143
 Zr        20.3148976049        2.4726060488       15.9856175343
 Zr        40.6429149869       32.6861514241       15.9730420331
 Zr        28.3568665973       16.3522335693        0.0921566010
 Zr        32.6230646525       18.8394656575        0.0521365954
  H        31.5165299901       20.1022815481        6.7266295975
  H        31.2618962089       20.0077534089        6.0395319237
  H        27.8390389551       18.2418762628        9.0372623197
  H        28.2575657305       17.6306109360        9.3050794174
