     572
 i =      300, E =     -4746.7679670826
  C        11.8585658735       14.0535449034       13.7364963891
  C        12.4560945185       12.8904949075       13.0182250205
  C        11.7046185641       12.1720264368       12.0760668316
  C        12.2809894804       11.1098174614       11.3836882679
  C        13.6213582688       10.7395803645       11.6118935328
  C        14.3542359314       11.4426180947       12.5859716347
  C        13.7813507138       12.5075815587       13.2774991219
  C        14.2609782203        9.6489960967       10.8384758200
  C        14.2565192149        9.6570312789        9.4167714237
  C        13.7433917147       10.7591608057        8.6628375098
  C        49.1264686023       21.2333918398       13.8746182300
  C        48.5496596796       22.4011470655       13.1474449010
  C        49.2998525247       23.0687794167       12.1667646907
  C        48.7329112665       24.1078764594       11.4335506571
  C        47.4022095840       24.5091809447       11.6618527470
  C        46.6710213562       23.8599229703       12.6749382505
  C        47.2334888216       22.8150398693       13.4043124175
  C        46.7721039160       25.5869438345       10.8645688471
  C        46.7613654599       25.5574526370        9.4428090076
  C        47.2612465481       24.4423130557        8.6993543487
  C        14.8605568280        8.5707393610        8.7035118969
  C        14.8916152821        8.5969456767       11.5151067967
  C        49.1130661954       21.2034880596        2.1504411363
  C        48.5277038490       22.3647500381        2.8776300105
  C        49.2670322839       23.0257436679        3.8702994946
  C        48.6906546517       24.0602679165        4.6017384043
  C        47.3600968773       24.4567261682        4.3637522025
  C        46.6395192704       23.8114684138        3.3405759984
  C        47.2131162909       22.7755761809        2.6088123969
  C        46.7217165569       25.5317693545        5.1547218673
  C        46.7336412166       25.5282483562        6.5764174821
  C        47.2490093120       24.4290099703        7.3328035474
  C        40.6347591693       17.1117073902        7.3274884814
  C        40.6558998717       17.1525023719        4.5186323004
  C        11.8828117859       14.0865244379        2.2905370319
  C        12.4721305250       12.9105532972        2.9946636330
  C        11.7147640015       12.1777077310        3.9211571090
  C        12.2813110341       11.0952366979        4.5896063501
  C        13.6199679860       10.7211624940        4.3574310996
  C        14.3577266731       11.4362684279        3.3961135353
  C        13.7923221347       12.5174434809        2.7234134418
  C        14.2536853692        9.6245133865        5.1278818304
  C        14.2526562344        9.6446329960        6.5497217508
  C        13.7428154710       10.7536024424        7.2967907711
  C        22.5099770720        3.2446169503       13.7467710357
  C        23.2199851982        4.3511728822       13.0438943382
  C        24.2156834832        4.0733399422       12.0958295904
  C        24.8381532935        5.1142886741       11.4115982098
  C        24.4803994126        6.4551837889       11.6553321604
  C        23.5124526849        6.7245919633       12.6400092483
  C        22.8855447941        5.6855044171       13.3226690148
  C        25.0831267527        7.5633620918       10.8796645719
  C        25.0584309837        7.5563521085        9.4579563809
  C        24.3611515132        6.5550181361        8.7099138387
  C        38.3020060795       31.9285720480       13.8444838720
  C        37.5716630213       30.8386374467       13.1367213089
  C        36.6121053087       31.1413850257       12.1585146027
  C        35.9950168514       30.1202932357       11.4412500282
  C        36.3226253354       28.7712431261       11.6803694065
  C        37.2517223909       28.4760116940       12.6958007654
  C        37.8729892703       29.4957689420       13.4119110080
  C        35.7228739627       27.6788188124       10.8819882005
  C        35.7568671837       27.6944092043        9.4606161918
  C        36.4612239067       28.6988326990        8.7246283805
  C        25.6804121826        8.6277615007        8.7393163960
  C        25.6766106615        8.6397484751       11.5515525085
  C        38.3292061543       31.9623026385        2.1615984655
  C        37.6089118838       30.8893903210        2.9040055495
  C        36.6814714152       31.1978232976        3.9109301448
  C        36.0728704254       30.1790149440        4.6411372559
  C        36.3775584865       28.8266139751        4.3877721586
  C        37.2826223425       28.5282595919        3.3507669716
  C        37.8933462912       29.5434399572        2.6218571628
  C        35.7713316862       27.7266875343        5.1715642895
  C        35.7815056201       27.7191311264        6.5935270841
  C        36.4725626351       28.7109597028        7.3580520817
  C        46.1357355857       26.6209520090        7.2865241673
  C        46.0876455188       26.5800248178        4.4786298867
  C        22.4614355917        3.2558530426        2.2615683099
  C        23.1570119692        4.3657502754        2.9818639165
  C        24.1630190984        4.0816896468        3.9189978955
  C        24.7916440880        5.1132990407        4.6123917701
  C        24.4341137589        6.4583701946        4.3913126781
  C        23.4514862311        6.7358222801        3.4222555308
  C        22.8184896097        5.7044886147        2.7291761412
  C        25.0624446994        7.5577082443        5.1662064778
  C        25.0486158970        7.5527525414        6.5888954315
  C        24.3544209268        6.5546244356        7.3432150406
  C        26.6139115866       17.8576575518       13.7813742855
  C        25.3076821627       17.9049230294       13.0561203778
  C        25.0424941107       18.9125262470       12.1147292087
  C        23.8310308014       18.9325748306       11.4260464397
  C        22.8472430534       17.9498496437       11.6585653678
  C        23.1080937435       16.9653670455       12.6305152447
  C        24.3219069494       16.9389412248       13.3158049803
  C        21.5745716681       17.9381072959       10.8934145973
  C        21.5759828764       17.9238612181        9.4710114114
  C        22.7825548831       17.8090305657        8.7107328114
  C        34.4412561469       17.1943504745       13.9138960328
  C        35.7334633375       17.1411245569       13.1718264551
  C        35.9318350882       16.1771586393       12.1712350199
  C        37.1113274828       16.1623072231       11.4328938421
  C        38.1245032807       17.1095673745       11.6766975959
  C        37.9291992801       18.0533987962       12.7029860144
  C        36.7463361566       18.0745216582       13.4378156328
  C        39.3782450437       17.1152787716       10.8903510546
  C        39.3748558087       17.1306545477        9.4686104878
  C        38.1689442533       17.2601131344        8.7101059944
  C        20.3296670044       17.9401919081        8.7619492995
  C        20.3498260596       17.9364478354       11.5755306985
  C        34.4800065157       17.2442881389        2.1851115955
  C        35.7825546329       17.1686896950        2.9061515289
  C        35.9901005736       16.1880899911        3.8875799689
  C        37.1749470653       16.1667370884        4.6169401332
  C        38.1795659108       17.1255892354        4.3841391897
  C        37.9784381159       18.0809826545        3.3705979560
  C        36.7912800964       18.1075181455        2.6439052276
  C        39.4244678635       17.1398793767        5.1818180434
  C        39.3986384923       17.1442650816        6.6029717666
  C        38.1804312006       17.2650611166        7.3433706305
  C        35.1542322998       26.6374576225        7.2963587245
  C        35.1824839783       26.6560073314        4.4873753923
  C        26.5718263867       17.8289894377        2.3293547889
  C        25.2560577838       17.8739503721        3.0360294544
  C        24.9840111697       18.8921181576        3.9623611592
  C        23.7666682582       18.9186511760        4.6374364685
  C        22.7915607188       17.9275440327        4.4081250482
  C        23.0575930416       16.9335414994        3.4492819094
  C        24.2760788667       16.9047241355        2.7731802424
  C        21.5275709830       17.9120881503        5.1810477766
  C        21.5514582578       17.9091662760        6.6023791551
  C        22.7705762094       17.8020749727        7.3444779501
  C        14.0460745404       17.8288451942        2.2937464258
  C        15.3506827417       17.8862830229        3.0194497066
  C        15.6078346550       18.8917139655        3.9644439698
  C        16.8167747560       18.9135552732        4.6574064603
  C        17.8025216319       17.9326887973        4.4272423074
  C        17.5501098326       16.9510807070        3.4503869588
  C        16.3405628392       16.9248136254        2.7590433840
  C        19.0716109407       17.9174826150        5.1962413542
  C        19.0701598599       17.9173660122        6.6186711475
  C        17.8629637294       17.8182029486        7.3796210569
  C        46.8062693284       17.2185092288        2.1642725105
  C        45.5187636798       17.1565763165        2.9115164767
  C        45.3149260165       16.1768453695        3.8955073208
  C        44.1351647467       16.1582114430        4.6340648765
  C        43.1305029123       17.1196898100        4.4105341510
  C        43.3319239850       18.0793898026        3.4001508702
  C        44.5120551593       18.1016680777        2.6620799009
  C        41.8784488311       17.1299689518        5.1991793643
  C        41.8826075782       17.1219285105        6.6208067354
  C        43.0909483137       17.2086001688        7.3811825938
  C        20.3167541912       17.9316479433        7.3271852909
  C        20.2959075219       17.8966613688        4.5141806259
  C        46.7849689363       17.2293960686       13.8857525319
  C        45.4812915382       17.1188183595       13.1739301592
  C        45.2645341991       16.1179407555       12.2146915762
  C        44.0764467108       16.0876052057       11.4891335004
  C        43.0761299621       17.0549971879       11.7060466163
  C        43.2824768611       18.0241622775       12.7055309669
  C        44.4716952111       18.0610778480       13.4261493359
  C        41.8317513749       17.0775963772       10.9072591901
  C        41.8588488475       17.0936650750        9.4865407275
  C        43.0796822465       17.1927975820        8.7475543498
  C        46.1534996864       26.6374073762        8.7210613587
  C        46.1620620916       26.6559904601       11.5307136772
  C        14.0446214878       17.8312403023       13.7035974251
  C        15.3654688103       17.9049632297       13.0121055297
  C        15.6400754085       18.9232060107       12.0871166402
  C        16.8689786034       18.9608107790       11.4321162167
  C        17.8503465766       17.9792285169       11.6765892663
  C        17.5823779562       16.9892353860       12.6392921867
  C        16.3555255066       16.9512905918       13.2978713049
  C        19.1177834180       17.9561464655       10.9080281024
  C        19.0943859535       17.9359585512        9.4865320958
  C        17.8747320364       17.8265505786        8.7455887677
  C        28.7931773712       14.1140493231        2.3998850717
  C        28.1867460887       12.9379704522        3.0890888687
  C        28.9075096703       12.2043531950        4.0427211382
  C        28.3113310890       11.1244213927        4.6897155756
  C        26.9799750980       10.7554614091        4.4087909710
  C        26.2816728770       11.4700885101        3.4189734432
  C        26.8759699855       12.5486902944        2.7692245510
  C        26.3110083763        9.6730615245        5.1668429328
  C        26.2901896724        9.7011885123        6.5876958422
  C        26.7857271550       10.8169014016        7.3343523489
  C        32.1808122407       21.2430532913        2.1497117525
  C        32.7776812252       22.4076812002        2.8676481638
  C        32.0339711835       23.0815446867        3.8485160365
  C        32.6076457129       24.1186482855        4.5773241530
  C        33.9403331138       24.5101609842        4.3453979813
  C        34.6663492929       23.8550863031        3.3329961616
  C        34.0954118746       22.8118348060        2.6066298340
  C        34.5710633564       25.5839193928        5.1460296872
  C        34.5661989711       25.5523126223        6.5675556243
  C        34.0654870040       24.4324993680        7.3038586906
  C        25.6802147477        8.6223634656        7.3048253535
  C        25.6798049802        8.6198733092        4.4917462164
  C        32.1179032295       21.1931336075       13.8402555994
  C        32.7033771825       22.3511548660       13.1041578756
  C        31.9733424503       23.0071978659       12.1012363760
  C        32.5511419417       24.0464863856       11.3763811702
  C        33.8737696125       24.4574656428       11.6343091587
  C        34.5854778601       23.8155731404       12.6656918845
  C        34.0115366464       22.7729127817       13.3879182600
  C        34.5144665701       25.5413888878       10.8549950704
  C        34.5368306294       25.5306289967        9.4331753437
  C        34.0511324018       24.4221470819        8.6703744899
  C        40.6223485600       17.1008581619        8.7616569523
  C        40.6006701041       17.1059513549       11.5710899613
  C        28.7154993093       14.0950119628       13.7806659179
  C        28.1053500669       12.9463618988       13.0482431330
  C        28.8423194883       12.2397275543       12.0854567171
  C        28.2615781812       11.1777830411       11.3965340459
  C        26.9277614759       10.7961521801       11.6448950429
  C        26.2087240656       11.4883546587       12.6373207195
  C        26.7881715567       12.5501394114       13.3290324501
  C        26.2869043227        9.7035012911       10.8748037876
  C        26.2795585398        9.7168155211        9.4532116118
  C        26.7788712576       10.8254551523        8.6999377371
  C        18.1353641232        3.1808531555        2.3222352298
  C        17.4059729831        4.2781498155        3.0208233781
  C        16.3904991945        3.9997471767        3.9485781845
  C        15.7427751719        5.0397192879        4.6121103341
  C        16.0944077342        6.3834580004        4.3721766129
  C        17.0834917191        6.6529970024        3.4081158393
  C        17.7325780070        5.6156744487        2.7430342731
  C        15.4701994214        7.4912075184        5.1352250090
  C        15.4856875969        7.4906579149        6.5569333740
  C        16.1873338869        6.4971050301        7.3101047449
  C        42.9459306978       31.8594348584        2.0779558253
  C        43.6462837263       30.7718317599        2.8218645483
  C        44.5921458904       31.0931152842        3.8076451002
  C        45.1978129013       30.0875373697        4.5552762425
  C        44.8710002253       28.7345115994        4.3407082013
  C        43.9448224326       28.4202056399        3.3278131715
  C        43.3360499531       29.4253758703        2.5797832438
  C        45.4886483473       27.6552610545        5.1439039466
  C        45.4930485483       27.6810704694        6.5655876433
  C        44.8060346582       28.6891856111        7.3121859899
  C        14.8567623800        8.5631845951        7.2692847349
  C        14.8747131233        8.5628498653        4.4566209362
  C        42.9464554776       31.9614849307       13.8038408096
  C        43.6915953542       30.8854428321       13.0903086134
  C        44.6565019157       31.1913582248       12.1182955331
  C        45.2779929253       30.1717774513       11.4005545599
  C        44.9539064499       28.8214658104       11.6378743304
  C        44.0199983586       28.5237839416       12.6482542028
  C        43.3917675320       29.5405433862       13.3604524799
  C        45.5630008271       27.7241006601       10.8526338150
  C        45.5335479861       27.7175781762        9.4313356621
  C        44.8273239598       28.7078641990        8.6783686710
  C        35.1405725182       26.6256306095        8.7309579646
  C        35.1190132463       26.6018461127       11.5407103980
  C        18.1484866441        3.2468394963       13.7015364329
  C        17.4298415304        4.3437586635       12.9922668388
  C        16.4147959397        4.0524902456       12.0685376366
  C        15.7665458294        5.0831298131       11.3930779034
  C        16.1210126688        6.4283739019       11.6160109556
  C        17.1121989565        6.7117348701       12.5734712392
  C        17.7598116245        5.6828203835       13.2532926989
  C        15.4906396088        7.5241178405       10.8435316966
  C        15.4967319328        7.5076033258        9.4223969658
  C        16.1935687668        6.5059448050        8.6757090590
  H        10.6726361188       12.4665001199       11.8987186969
  H        11.6947853386       10.5516537993       10.6568335615
  H        15.3910393357       11.1674995524       12.7682016551
  H        14.3505235579       13.0703616058       14.0134936019
  H        13.3762415694       11.6312341019        9.1961360732
  H        50.3226700009       22.7489586209       11.9822812854
  H        49.3194421614       24.6233640885       10.6761636960
  H        45.6413195290       24.1602416405       12.8576845350
  H        46.6622143217       22.2894489947       14.1659716815
  H        47.6295009564       23.5758263580        9.2410555800
  H        14.8716385511        8.5880099594       12.6034068773
  H        50.2871733912       22.7031139899        4.0650537609
  H        49.2690398223       24.5759313349        5.3651030567
  H        45.6099275232       24.1082712216        3.1518356206
  H        46.6520817958       22.2531035742        1.8376106321
  H        47.6075292006       23.5517722780        6.8019254648
  H        40.6629718141       17.1246964178        3.4307241376
  H        48.6870224461       14.0947547088       15.7949158713
  H        10.6813976467       12.4670336571        4.0987916107
  H        11.6895696875       10.5250859583        5.3025428700
  H        15.3929745806       11.1579682198        3.2097900616
  H        14.3644211188       13.0864617832        1.9944216278
  H        13.3758344565       11.6221403130        6.7581326239
  H        47.9300712465       14.2180703054        1.7156394727
  H        47.7800207997       14.3733681114       14.4900040065
  H        49.0830897685       18.5522953514        2.8722825460
  H        10.4156876083       14.1343268579        0.0036880419
  H        24.4795725409        3.0353691898       11.9055910603
  H        25.6108981054        4.8985463641       10.6769206965
  H        23.2285923639        7.7567947150       12.8343977237
  H        22.1161389954        5.8839036907       14.0648088009
  H        23.8003914653        5.7968253439        9.2487588960
  H        36.3750765285       32.1843696697       11.9622230722
  H        35.2509836647       30.3584744557       10.6843176945
  H        37.5120026288       27.4371260931       12.8876869605
  H        38.6162755889       29.2755611658       14.1744752999
  H        37.0241999570       29.4495451350        9.2715265149
  H        25.7103138805        8.6222512920       12.6394180480
  H        36.4585435850       32.2419391509        4.1186076125
  H        35.3480576311       30.4232842304        5.4145513197
  H        37.5294916924       27.4880967850        3.1486939387
  H        38.6146735151       29.3182282981        1.8401472560
  H        37.0453698728       29.4705214956        6.8338412290
  H        46.1087254987       26.5872016765        3.3905873858
  H        44.6681416484       35.1160759497       15.8088121788
  H        24.4426940338        3.0439174322        4.0859182894
  H        25.5748647204        4.8860473948        5.3324865491
  H        23.1639091512        7.7697546620        3.2425952166
  H        22.0438849503        5.9156446962        1.9955612803
  H        23.7880320742        5.7965443563        6.8100606099
  H        44.9533149599       34.3899296201        1.7000060632
  H        44.9012279320       34.2066325631       14.4854603397
  H        40.6657142028       33.2086301561        2.8580093775
  H        23.1504078212        1.9576621205        0.0097784821
  H        25.7953172702       19.6786387966       11.9424311318
  H        23.6295134227       19.7202766624       10.7031135262
  H        22.3597930235       16.1982230082       12.8191772011
  H        24.5338463045       16.1658038052       14.0508050512
  H        23.7237032287       17.6945697035        9.2406877275
  H        35.1436870030       15.4525201483       11.9817012849
  H        37.2641160075       15.4085911906       10.6636332234
  H        38.7039619535       18.7929041100       12.8945051764
  H        36.5781460651       18.8182693462       14.2132556439
  H        37.2288998691       17.3894421382        9.2391026923
  H        20.3559471863       17.9715863727       12.6635626909
  H        35.2024248420       15.4624574001        4.0759258198
  H        37.3356388343       15.4044604653        5.3760841577
  H        38.7486615197       18.8273442943        3.1875602337
  H        36.6129287624       18.8629719225        1.8823299662
  H        37.2491732037       17.3966633650        6.7998223616
  H        35.1530331426       26.6838457724        3.3997771423
  H        28.5083969176       21.0951306859       15.8959920496
  H        25.7386537174       19.6569979924        4.1318793475
  H        23.5547241212       19.7126175246        5.3503976252
  H        22.3127159748       16.1615581818        3.2670698152
  H        24.4977878681       16.1261504302        2.0470882879
  H        23.7022660079       17.6827259689        6.7995434309
  H        29.0018525930       21.7251542446        1.7526372976
  H        29.1572731311       21.7489981014       14.5500088582
  H        32.1006867003       18.5686784691        2.9864186628
  H        27.4065956005       19.0852909523        0.0903498126
  H        14.8497393333       19.6516071720        4.1405428872
  H        17.0125276724       19.6995512440        5.3836559874
  H        18.3007052091       16.1856803512        3.2640189020
  H        16.1338287548       16.1539075292        2.0204856846
  H        16.9207237479       17.7020976471        6.8519671702
  H        46.0979208182       15.4437012170        4.0741186398
  H        43.9762991022       15.3906217250        5.3882472832
  H        42.5636174271       18.8294106673        3.2242298210
  H        44.6844935875       18.8563535973        1.8983517904
  H        44.0337667555       17.3208698282        6.8535340629
  H        20.2900165111       17.9218713748        3.4259386012
  H        46.0431641931       15.3793081906       12.0386224456
  H        43.9107998636       15.3118738915       10.7447158404
  H        42.5142239473       18.7746745086       12.8794631519
  H        44.6530575880       18.8288080677       14.1742959789
  H        44.0139295571       17.2918388114        9.2925461613
  H        46.1985395733       26.6823281600       12.6181749364
  H        52.7408744315       21.0625438133        0.1997672793
  H        14.8806342122       19.6787897603       11.8983366642
  H        17.0814124650       19.7534122015       10.7178434578
  H        18.3314308378       16.2247215602       12.8350895756
  H        16.1328142340       16.1745753669       14.0254168980
  H        16.9413663300       17.7169590558        9.2895677421
  H        52.3215630863       21.6730319749       14.2895442060
  H        52.0125935034       21.7015742607        1.5007098673
  H        49.0664076260       18.6075066738       13.1993939762
  H        13.2471196928       19.0167355267       15.9721382258
  H        29.9326181540       12.4940960992        4.2629254895
  H        28.8724138856       10.5537716799        5.4265968995
  H        25.2530963566       11.1954558086        3.1941794226
  H        26.3346102315       13.1207996240        2.0197836548
  H        27.1467759960       11.6868752831        6.7943317218
  H        31.0103170007       22.7661450087        4.0350361289
  H        32.0267284695       24.6396912950        5.3351439335
  H        35.6980643091       24.1477979132        3.1490790564
  H        34.6619546461       22.2794438850        1.8461083036
  H        33.7178017482       23.5605413846        6.7571088206
  H        25.7146131748        8.5991902286        3.4038950870
  H        30.9555826790       22.6827943214       11.8974299832
  H        31.9789041874       24.5565209850       10.6045973885
  H        35.6093421565       24.1216722074       12.8702046459
  H        34.5664327454       22.2551906325       14.1667750984
  H        33.6931334257       23.5415089123        9.1961838643
  H        40.5922643222       17.0672771374       12.6586975943
  H        32.5192533531       14.1431590186        0.2663020225
  H        29.8736979424       12.5303833909       11.8988447149
  H        28.8404601418       10.6251733073       10.6596680142
  H        25.1772498788       11.2050285465       12.8367172554
  H        26.2307851168       13.0992821171       14.0842977001
  H        27.1332473626       11.7024032633        9.2336050430
  H        33.2908946516       14.1824823949       14.4253055301
  H        33.4069713029       14.4075575929        1.6172971786
  H        32.1494575742       18.5275809518       13.1833284920
  H        30.2230853409       14.1849114615        0.0816335264
  H        16.1186359890        2.9632210168        4.1351593828
  H        14.9534699816        4.8202983458        5.3279218069
  H        17.3656017921        7.6859042062        3.2147170635
  H        18.5143233929        5.8182721326        2.0148621615
  H        16.7538188643        5.7397146787        6.7765997870
  H        44.8286834315       32.1401645816        3.9816535628
  H        45.9378890712       30.3411990083        5.3110438483
  H        43.6816972947       27.3781910693        3.1580155079
  H        42.5991117835       29.1900189635        1.8154396169
  H        44.2306040156       29.4368863982        6.7738724639
  H        14.8506843568        8.5459077849        3.3684086169
  H        44.9002900109       32.2340200351       11.9270706731
  H        46.0250989230       30.4129592251       10.6475018584
  H        43.7626149502       27.4840887317       12.8394476820
  H        42.6449259412       29.3176845541       14.1185407403
  H        44.2687306528       29.4707013379        9.2129350640
  H        35.0727781414       26.6144046465       12.6280421943
  H        36.6050137853       35.1339105796        0.1858284832
  H        16.1438318322        3.0128977941       11.8986931445
  H        14.9743173471        4.8562741349       10.6828857473
  H        17.3954611436        7.7472268290       12.7505927928
  H        18.5424728817        5.8931961387       13.9783070151
  H        16.7649109494        5.7556531324        9.2141729115
  H        36.2785522153       34.4821761994       14.2681878254
  H        36.3807236617       34.2092234452        1.5049951347
  H        40.5797516453       33.2018796349       13.1486874993
  H        17.4706462132        1.9468813624       15.9689447153
  H        29.1634008562       19.4500000747        4.5384990275
  H        28.8050432227       18.4388415062       11.9554013464
  H        30.5111190269       15.5979652126       11.9741958073
  H        31.2347989754       15.4957372374        4.4649737770
  H        28.0724014378       18.0189660477        6.4457148077
  H        29.3977709248       15.4820846386        6.6047350761
  H        30.1301824449       19.7136469329       10.2832019437
  H        32.1611128464       15.9805982814       10.1127768781
  H        18.8536557667        0.8691543445        4.3404110473
  H        40.5279135734       35.2291297374       11.9470482758
  H        42.3235439911       34.4182711741       11.5859255278
  H        22.0880917737        0.6920017143        4.3566873527
  H        11.5970425131       18.7130299057        4.3874368201
  H        52.2645642465       18.4308543427       11.6721130766
  H        49.2551307125       16.4773452537       11.5795973099
  H        10.1499134581       15.7982316136        4.2982296339
  H        50.8495912541       17.6922615367       11.9493036196
  H        10.0458861234       17.3944407101        4.0571485104
  H        20.2148435883        0.0022909088        4.0471276276
  H        39.1835855842       36.1244609619       11.6814282003
 Ni        30.8644882546       17.7141646668       10.9914273676
 Ni        31.0232016981       16.4604279084        7.9959209249
 Ni        29.5882917764       18.4093080729        8.3246264511
 Ni        30.1825174834       17.4301680146        5.1667724728
  O        10.6499276411       14.3650860986       13.4806600411
  O        12.6131721227       14.6575354487       14.5787730811
  O        49.1481069006       16.8460548212       15.9846165895
  O        50.3500978120       20.9362072714       13.6431806397
  O        48.3484875766       20.5933352228       14.6608723327
  O        11.0514683923       17.0540669803       14.4954883398
  O        50.3210276176       20.8817018071        2.4118732830
  O        48.3467786525       20.5867547730        1.3322174974
  O        49.5436755852       18.2484904199        2.0734143163
  O        12.3588831858       18.6245675870        0.0048224887
  O        48.6932720139       14.1484956496       14.7461985485
  O         8.2099154542       14.2102055562        1.3275800474
  O        10.7353565981       14.5066975726        2.6694631946
  O        12.5718191999       14.5828273779        1.3335999849
  O        22.8448450478        2.0439903562       13.4818895558
  O        21.6050748588        3.5922519478       14.5848885465
  O        42.0581318214       34.1372850751       15.9738378327
  O        37.9815378639       33.1369683218       13.5674666398
  O        39.2182979902       31.5760529349       14.6617097428
  O        20.3083420140        1.0394483754       14.4968480346
  O        38.0249569503       33.1862703766        2.4200894872
  O        39.2193519819       31.5840813377        1.3313611739
  O        40.6523243826       33.7692944478        2.0653621645
  O        18.2554711552        1.3759046791        0.0018760769
  O        44.6222186090       35.1005635714       14.7536004813
  O        24.2053896631        0.0000119668        1.3259370016
  O        22.7530728229        2.0581129233        2.5889710773
  O        21.6243291087        3.5960256613        1.3474399315
  O        27.4941910453       18.7483054761       13.4877936212
  O        26.7600074881       16.9351383220       14.6505016769
  O        30.6737921091       19.4086414283        0.0730705126
  O        33.5845081427       16.2784536761       13.6610649315
  O        34.2767987142       18.1681595316       14.7298007945
  O        29.5736995120       17.0623872017       14.5833739767
  O        33.6214652864       16.3289994517        2.4140538014
  O        34.3068397202       18.2478144205        1.4112482612
  O        31.6556132415       18.3132598589        2.1611872348
  O        30.3218900944       15.1511135120        0.0893105044
  O        28.5551649856       21.0382658430       14.8363185497
  O        28.5141613201       20.9579720644        1.4074187929
  O        27.4571915757       18.6797850481        2.6651791937
  O        26.6936111026       16.9303473585        1.4179441261
  O        13.1487233048       18.6930411478        2.5925973407
  O        13.9195334269       16.9161936796        1.4102049263
  O        50.5958914104       19.3502757271        0.0255824122
  O        47.6847597615       16.3264848727        2.4218747685
  O        46.9521471718       18.1756365447        1.3297596284
  O        11.0696573072       17.0156221442        1.4948711144
  O        47.6770310454       16.3353196452       13.6485048407
  O        46.9272685732       18.2355053119       14.6593822933
  O        49.5685154960       18.3178049758       13.9771371779
  O        10.3185756332       15.1001979112        0.0021457152
  O        52.6707235254       21.0278969285        1.2469534388
  O        12.1468162814       20.8911819309       14.6680344540
  O        13.1081057566       18.6137164422       13.3204567132
  O        13.9572078730       16.9869200824       14.6603320161
  O        29.9623330298       14.4955339132        2.7432282326
  O        28.0795302638       14.6571613370        1.4895580354
  O        32.1432554711       16.8615917957        0.0889827195
  O        30.9665568837       20.9551536825        2.4129963908
  O        32.9475725975       20.6026689571        1.3441774097
  O        29.5681311970       17.0791605411        1.5802853788
  O        30.9029990802       20.8729557251       13.5784906222
  O        32.8785659288       20.5856951572       14.6624624020
  O        31.6876324778       18.2512052336       13.9935438280
  O        28.2890701952       18.6804842141        0.0801643130
  O        32.4929312130       14.2126768933        1.3375633943
  O        32.4033152201       14.2096984896       14.8196002850
  O        29.8710129916       14.5014160127       13.4111541353
  O        28.0398715412       14.5868350532       14.7467118039
  O        17.8891801411        1.9666172759        2.6679255927
  O        18.9562006441        3.5271318659        1.4130945981
  O        39.1687117297       34.1388334082        0.0022799659
  O        43.2802432220       33.0589814640        2.3367655427
  O        42.0345655373       31.5064810946        1.2466948726
  O        20.3176455915        1.0366233863        1.4854147953
  O        43.2760968415       33.1825946585       13.5697912912
  O        42.0053042770       31.5841197763       14.5778878430
  O        40.5789837055       33.7748520238       13.9306037528
  O        22.3672439349        1.3845300236        0.0030443671
  O        36.6727177408       35.0997705098        1.2384094488
  O        16.4454895486        0.0641524146       14.6631080551
  O        17.9364300232        2.0433360348       13.3212717041
  O        18.9189519050        3.5931263709       14.6608299560
  O        29.7120521602       18.7493668051       12.1436140240
  O        29.8233510060       18.9710246610        4.0044994445
  O        31.2127028017       16.2588962589       12.1515458259
  O        31.3572091048       16.3445543913        3.9989847578
  O        31.8558038768       16.7839351058        9.6507562986
  O        30.2878493740       15.8256055539        6.4170656036
  O        30.6272203970       19.0634421309        9.7445863263
  O        28.9692877233       18.3751019381        6.5589157048
  O        39.4568042486       35.2438275327       11.9968519370
  O        19.1415905077        0.0047272177        3.9956670552
  O        41.9696581379       35.1726696011       12.0821405435
  O        21.6914499911       -0.0692591308        3.9010135930
  O        51.3648831167       18.6142386584       12.0003333457
  O        10.7512085692       18.7472692602        3.9100127502
  O        50.0797391559       16.4128212581       12.0865887069
  O         9.5243049273       16.4831342955        3.9963774862
 Zr         9.2959332709       16.0528261914       14.1772728464
 Zr        49.8355571318       16.0066678497        1.7515703283
 Zr        22.0730703932        0.0293302485       14.1840999008
 Zr        42.4607625528       35.1529318379        1.8059664741
 Zr        29.6231152135       19.0902833873       14.3063188258
 Zr        29.5828286853       19.1846366702        1.8724479107
 Zr        11.0370901212       19.0521103621        1.8326630655
 Zr        11.0428499044       19.1550051841       14.2461941818
 Zr        31.3549499008       16.1037760141        1.8908676055
 Zr        31.4105094553       16.0206363578       14.3157680460
 Zr        18.6009345800       -0.0019274445        1.7685562541
 Zr        18.5062355194       -0.0084982956       14.2085564880
 Zr        12.3007747698       16.3235876166       15.9851906594
 Zr        48.6152876136       18.8330090637        0.0152837036
 Zr        20.3147165822        2.4726195688       15.9855291353
 Zr        40.6431474596       32.6863902045       15.9730784552
 Zr        28.3511212570       16.3468109282        0.0943859197
 Zr        32.6470848751       18.8420239863        0.0656382093
  H        31.6229143408       19.8960932454        7.2029769110
  H        31.3803269444       19.8621850369        6.5041436390
  H        27.9996286143       18.3719099166        9.0920345233
  H        28.3425663729       17.6601360486        9.2610518795
