     570
 i =      297, E =     -4745.5321966009
  C        11.8584203279       14.0534312579       13.7365957620
  C        12.4556219488       12.8903451828       13.0181768765
  C        11.7038327762       12.1721795106       12.0760071132
  C        12.2795771558       11.1094502354       11.3839749160
  C        13.6196897410       10.7384248370       11.6123140313
  C        14.3528239951       11.4410783650       12.5864685185
  C        13.7806241395       12.5066615361       13.2776076356
  C        14.2587735091        9.6476260799       10.8388221092
  C        14.2541089917        9.6557085968        9.4171107288
  C        13.7407446638       10.7577098541        8.6631928107
  C        49.1265823717       21.2335585671       13.8749004032
  C        48.5497309587       22.4012522762       13.1475856692
  C        49.2998023556       23.0684322183       12.1664886341
  C        48.7329063841       24.1073977466       11.4330482138
  C        47.4023889920       24.5091129981       11.6616929729
  C        46.6712843563       23.8602927427       12.6751057826
  C        47.2337613687       22.8156294946       13.4047706768
  C        46.7722470127       25.5868659348       10.8645287490
  C        46.7616264712       25.5575510305        9.4427969073
  C        47.2617767512       24.4425482614        8.6993543670
  C        14.8579613167        8.5694059612        8.7037427828
  C        14.8896710971        8.5956445676       11.5152488014
  C        49.1132173719       21.2037600339        2.1500866560
  C        48.5281213018       22.3654658397        2.8768301116
  C        49.2674410327       23.0260739217        3.8697754956
  C        48.6910982289       24.0603595102        4.6015967202
  C        47.3605154999       24.4568739405        4.3638032639
  C        46.6399665036       23.8120107169        3.3403357038
  C        47.2135551994       22.7764110149        2.6081073453
  C        46.7221464701       25.5319352362        5.1548397225
  C        46.7340076596       25.5284554755        6.5765209130
  C        47.2495635538       24.4292599083        7.3328249182
  C        40.6208534499       17.0886446057        7.3153981059
  C        40.6300912774       17.0983485878        4.5057971727
  C        11.8825654110       14.0863284948        2.2903724555
  C        12.4714238676       12.9100659281        2.9943718696
  C        11.7135442293       12.1773051654        3.9205116818
  C        12.2795433202       11.0946695275        4.5891292701
  C        13.6182065493       10.7203270251        4.3573926191
  C        14.3564775917       11.4351762025        3.3962401022
  C        13.7915645024       12.5165776118        2.7234347933
  C        14.2513574636        9.6234473011        5.1280661647
  C        14.2499556512        9.6433729778        6.5499410125
  C        13.7400957656       10.7522754148        7.2971392599
  C        22.5148036533        3.2438755520       13.7538850348
  C        23.2353571389        4.3493771676       13.0667712697
  C        24.1802785499        4.0752363793       12.0652204212
  C        24.7922980746        5.1179423613       11.3791827728
  C        24.4907323588        6.4647755841       11.6839915168
  C        23.5885519129        6.7257168513       12.7372618407
  C        22.9602405365        5.6837791373       13.4091475948
  C        25.0662056881        7.5755235423       10.9165083573
  C        25.0672967379        7.5510596463        9.4603764748
  C        24.3630170969        6.5830734427        8.7308170579
  C        38.3021469036       31.9292545484       13.8448055560
  C        37.5713701619       30.8400025930       13.1366559892
  C        36.6084136650       31.1443942165       12.1624170946
  C        35.9897191130       30.1245723942       11.4449909931
  C        36.3195693466       28.7754230530       11.6798536665
  C        37.2528229574       28.4783198982       12.6908460784
  C        37.8753804967       29.4969275870       13.4074935120
  C        35.7165561359       27.6848334283       10.8817398322
  C        35.7457182128       27.7026037160        9.4603898163
  C        36.4494679918       28.7071462168        8.7239855849
  C        25.7026505864        8.6155472077        8.7423819341
  C        25.6160784221        8.6761639598       11.5807946112
  C        38.3290162191       31.9624069974        2.1612007840
  C        37.6077764542       30.8898932745        2.9033755814
  C        36.6772116331       31.1995516852        3.9069660855
  C        36.0671503934       30.1816874070        4.6371034918
  C        36.3736638352       28.8290789511        4.3872526456
  C        37.2821096942       28.5293739674        3.3536312511
  C        37.8941229420       29.5437255074        2.6245667213
  C        35.7644648959       27.7310138286        5.1713144537
  C        35.7699882013       27.7264821069        6.5933303104
  C        36.4606382209       28.7189295635        7.3574569428
  C        46.1358903430       26.6210720486        7.2866191081
  C        46.0882669326       26.5803305727        4.4787502262
  C        22.4641346912        3.2555893813        2.2568276359
  C        23.1643816214        4.3649771934        2.9660701808
  C        24.1067873438        4.0849763796        3.9703176939
  C        24.7236503183        5.1189049009        4.6656691081
  C        24.4335630507        6.4710055697        4.3714041086
  C        23.5272058261        6.7397734424        3.3224723872
  C        22.8947334668        5.7048014700        2.6394524176
  C        25.0371542605        7.5727045629        5.1367996548
  C        25.0535792560        7.5487268860        6.5946844623
  C        24.3539567341        6.5838047639        7.3324787078
  C        26.6093214907       17.8564046426       13.7819771434
  C        25.3033837561       17.9004776076       13.0565137558
  C        25.0279312019       18.9210447278       12.1325771054
  C        23.8170715453       18.9402264119       11.4432563177
  C        22.8443895503       17.9432180510       11.6581953258
  C        23.1148160973       16.9445147980       12.6125006908
  C        24.3283941054       16.9193245010       13.2985939554
  C        21.5722746627       17.9325705625       10.8919854140
  C        21.5747985796       17.9242901972        9.4696294466
  C        22.7827961022       17.8203296244        8.7098245599
  C        34.4432529211       17.1934960215       13.9182478986
  C        35.7376319947       17.1428082879       13.1763666914
  C        35.9453440970       16.1664742967       12.1895127625
  C        37.1233320260       16.1539343706       11.4482298699
  C        38.1270811516       17.1155086601       11.6749982007
  C        37.9231102655       18.0718137420       12.6878573318
  C        36.7413531784       18.0906272116       13.4255762915
  C        39.3793322174       17.1211100671       10.8845553397
  C        39.3705303043       17.1247065560        9.4626340133
  C        38.1612357402       17.2449330591        8.7081806672
  C        20.3285723464       17.9382211595        8.7603725632
  C        20.3477229711       17.9281594576       11.5737273173
  C        34.4406361359       17.2368782296        2.1939118236
  C        35.7412460766       17.1350763083        2.9163259301
  C        35.9372100668       16.1670317332        3.9125980458
  C        37.1277915639       16.1353139242        4.6346815843
  C        38.1502861399       17.0710174009        4.3817509926
  C        37.9592877700       18.0116358099        3.3520642250
  C        36.7687234429       18.0481630553        2.6326832556
  C        39.3999739556       17.0873828251        5.1741660096
  C        39.3810309409       17.1089536519        6.5958272265
  C        38.1664359369       17.2367411585        7.3414405934
  C        35.1390667661       26.6471893676        7.2966885281
  C        35.1773225690       26.6591602106        4.4874120523
  C        26.5717888865       17.8285997865        2.3279754888
  C        25.2556341237       17.8737428536        3.0345024183
  C        24.9705348190       18.9085787057        3.9379814540
  C        23.7537944987       18.9345879944        4.6142289639
  C        22.7915674545       17.9264762055        4.4072912269
  C        23.0698687096       16.9146559420        3.4712963323
  C        24.2880916400       16.8866027256        2.7943567820
  C        21.5271716888       17.9125992268        5.1803189857
  C        21.5512370924       17.9134074540        6.6014652223
  C        22.7713417173       17.8153517721        7.3433511927
  C        14.0460333503       17.8290189007        2.2934477606
  C        15.3507197278       17.8867246311        3.0182614793
  C        15.6056897158       18.8883842908        3.9678372888
  C        16.8147407877       18.9098453971        4.6604007480
  C        17.8028804116       17.9324419279        4.4252287918
  C        17.5528681881       16.9553768437        3.4431877311
  C        16.3430968711       16.9292779788        2.7524097561
  C        19.0715778688       17.9161573839        5.1943319521
  C        19.0697523718       17.9147533947        6.6166825881
  C        17.8625806781       17.8107629139        7.3771532513
  C        46.8019867252       17.2156619687        2.1619472480
  C        45.5086214904       17.1445090747        2.9019993941
  C        45.3043346089       16.1609704187        3.8824979097
  C        44.1204653923       16.1325476348        4.6149892969
  C        43.1094383941       17.0873881386        4.3900857578
  C        43.3103632685       18.0495332114        3.3816413377
  C        44.4951686794       18.0819409304        2.6498480006
  C        41.8564110306       17.0918021019        5.1806427808
  C        41.8657751453       17.0975777709        6.6028651113
  C        43.0766695963       17.1958194655        7.3580122864
  C        20.3160516277       17.9314570994        7.3257011047
  C        20.2962635156       17.8950522252        4.5126962601
  C        46.7851956267       17.2318412929       13.8818872585
  C        45.4842000343       17.1270333013       13.1624439447
  C        45.2673914090       16.1282071258       12.2008695294
  C        44.0809146375       16.1007783043       11.4720261343
  C        43.0811173821       17.0694512895       11.6869228833
  C        43.2890325659       18.0390530363       12.6858572530
  C        44.4763721868       18.0725717011       13.4101539441
  C        41.8336810629       17.0888841967       10.8916332391
  C        41.8543936449       17.0945069684        9.4703756214
  C        43.0714155443       17.1909918564        8.7247956395
  C        46.1535292260       26.6374049733        8.7211439358
  C        46.1621637332       26.6558201067       11.5307946031
  C        14.0448126427       17.8313170084       13.7039906696
  C        15.3655752538       17.9044767184       13.0129274992
  C        15.6372798684       18.9170682104       12.0809271980
  C        16.8653091554       18.9525245598       11.4244589177
  C        17.8490440892       17.9746652656       11.6747186228
  C        17.5844877468       16.9916350764       12.6454905340
  C        16.3583085019       16.9554175457       13.3051971031
  C        19.1157518123       17.9495712908       10.9058968574
  C        19.0930124338       17.9302439755        9.4844837900
  C        17.8738909716       17.8176475667        8.7430764714
  C        28.7931780116       14.1114098268        2.3977295676
  C        28.1925919854       12.9311566737        3.0745888612
  C        28.8659260345       12.2592841621        4.1072357810
  C        28.2578945838       11.1915977418        4.7573347903
  C        26.9629284359       10.7539503160        4.3916803567
  C        26.3254963741       11.3965866431        3.3087771827
  C        26.9256676874       12.4746421971        2.6698930114
  C        26.2751426375        9.6949116452        5.1381875849
  C        26.2710130368        9.7125320886        6.5938952067
  C        26.7014572969       10.8307647596        7.3218997831
  C        32.1791181704       21.2411875366        2.1536594837
  C        32.7724951155       22.4092337217        2.8699631041
  C        32.0200881674       23.1009764220        3.8316481203
  C        32.5918296291       24.1394234715        4.5602206694
  C        33.9317757687       24.5155319737        4.3461021744
  C        34.6671712660       23.8440415306        3.3515471536
  C        34.0979098824       22.7991031606        2.6262191420
  C        34.5602157559       25.5909826833        5.1467288281
  C        34.5485421521       25.5631784771        6.5681922668
  C        34.0394281638       24.4473831666        7.3048092740
  C        25.7007476711        8.6108059197        7.3089166743
  C        25.6129551471        8.6589654082        4.4691856199
  C        32.1182174179       21.1971430634       13.8458068641
  C        32.7033543314       22.3578966404       13.1118624529
  C        31.9673340889       23.0190432179       12.1167741420
  C        32.5415895580       24.0586007452       11.3896679395
  C        33.8673675884       24.4650249714       11.6376751947
  C        34.5854065936       23.8187811638       12.6619256850
  C        34.0145699396       22.7755475197       13.3863123285
  C        34.5048420071       25.5494429436       10.8561712977
  C        34.5202912028       25.5416437145        9.4341552565
  C        34.0261600525       24.4367988879        8.6714325112
  C        40.6148847092       17.0920096494        8.7501997803
  C        40.6047166147       17.1200980734       11.5602850548
  C        28.7204823370       14.0959832568       13.7817829529
  C        28.1111360733       12.9445091077       13.0611076334
  C        28.8011015317       12.2988192888       12.0216900856
  C        28.2077722492       11.2482260496       11.3319422457
  C        26.9097551440       10.7971848721       11.6662765550
  C        26.2484151167       11.4197277803       12.7473409667
  C        26.8350739970       12.4821566228       13.4257710571
  C        26.2534589350        9.7244699704       10.9096641823
  C        26.2628473437        9.7268478300        9.4534660877
  C        26.6962058580       10.8385415750        8.7185470819
  C        18.1348408317        3.1808776978        2.3221364403
  C        17.4050870614        4.2778772579        3.0208541486
  C        16.3897137427        3.9989314469        3.9485695556
  C        15.7416579054        5.0385539516        4.6123294059
  C        16.0925491539        6.3825179988        4.3723672851
  C        17.0816683774        6.6524699054        3.4084464313
  C        17.7312161898        5.6155273432        2.7431677393
  C        15.4678853587        7.4901206755        5.1353586939
  C        15.4832496728        7.4895048473        6.5570698203
  C        16.1853651553        6.4962115791        7.3101607377
  C        42.9459455125       31.8595837087        2.0781112530
  C        43.6463370158       30.7720192671        2.8221858306
  C        44.5918981090       31.0934175788        3.8082255953
  C        45.1976239051       30.0878625469        4.5558530828
  C        44.8712959571       28.7347687816        4.3409558895
  C        43.9453641290       28.4204298802        3.3278573066
  C        43.3364325410       29.4255464986        2.5798690118
  C        45.4889990939       27.6554586752        5.1440194435
  C        45.4931485914       27.6811580531        6.5656957325
  C        44.8057664550       28.6889965080        7.3123851801
  C        14.8542035722        8.5619439435        7.2695011756
  C        14.8723863026        8.5617900904        4.4567410020
  C        42.9464883215       31.9615205399       13.8037827304
  C        43.6916926998       30.8854569014       13.0902238010
  C        44.6564540464       31.1912544990       12.1180192041
  C        45.2779524365       30.1715140186       11.4004985664
  C        44.9539398255       28.8212322814       11.6380622727
  C        44.0204290125       28.5237062292       12.6488342525
  C        43.3920557841       29.5406030121       13.3607343781
  C        45.5629380484       27.7238611081       10.8527936207
  C        45.5333551783       27.7173920769        9.4314926479
  C        44.8268446268       28.7074984762        8.6785763293
  C        35.1258056329       26.6354991907        8.7313532218
  C        35.1141298089       26.6075818198       11.5410556896
  C        18.1481625017        3.2468525430       13.7017767955
  C        17.4289349210        4.3434914661       12.9927441702
  C        16.4148085572        4.0517654874       12.0681763184
  C        15.7664425858        5.0820340185       11.3923456861
  C        16.1196946813        6.4274726931       11.6160072437
  C        17.1099009181        6.7113094382       12.5743388305
  C        17.7577850968        5.6827061832       13.2543639602
  C        15.4888030543        7.5229149574       10.8436400848
  C        15.4947537509        7.5065705855        9.4225097851
  C        16.1917541822        6.5051042897        8.6757536654
  H        10.6720955565       12.4673793705       11.8984479170
  H        11.6930397462       10.5515071946       10.6572383869
  H        15.3893580018       11.1652763724       12.7691903068
  H        14.3500655366       13.0694367945       14.0134134844
  H        13.3736399780       11.6297901368        9.1964883462
  H        50.3225088006       22.7483950535       11.9817739698
  H        49.3192456110       24.6224001467       10.6751731273
  H        45.6416350322       24.1608243974       12.8577819243
  H        46.6626552142       22.2906329043       14.1669406612
  H        47.6303135855       23.5762013842        9.2410772056
  H        14.8698132722        8.5864582464       12.6035422644
  H        50.2876032308       22.7034003985        4.0643270434
  H        49.2694037749       24.5754368100        5.3654171130
  H        45.6102140578       24.1085837650        3.1520853367
  H        46.6525404287       22.2544173483        1.8365716916
  H        47.6083696982       23.5521322858        6.8019607126
  H        40.6330577096       17.0597737095        3.4181258026
  H        48.6870485802       14.0947451322       15.7947197240
  H        10.6801667465       12.4668385458        4.0977013928
  H        11.6874229642       10.5245837137        5.3017841297
  H        15.3916872220       11.1565626046        3.2101037074
  H        14.3641027049       13.0854542663        1.9946421894
  H        13.3729772218       11.6207995308        6.7585393175
  H        47.9300664990       14.2179735267        1.7158548985
  H        47.7798906459       14.3734396262       14.4901393539
  H        49.0818155115       18.5516251673        2.8718580970
  H        10.4161047294       14.1344428160        0.0035305511
  H        24.4077456376        3.0369699247       11.8339051218
  H        25.5221259302        4.9026911041       10.6021097922
  H        23.3451398639        7.7578194401       12.9804901532
  H        22.2307640786        5.8786934957       14.1914569436
  H        23.7814684703        5.8339632179        9.2595795788
  H        36.3699513750       32.1876826497       11.9696829867
  H        35.2427258904       30.3636725556       10.6912856825
  H        37.5148595854       27.4391801340       12.8789523818
  H        38.6216367656       29.2757779626       14.1668780310
  H        37.0126933491       29.4579150011        9.2705527330
  H        25.6374577324        8.6665720734       12.6691940825
  H        36.4529163889       32.2438959752        4.1119532549
  H        35.3398314027       30.4267963032        5.4079033139
  H        37.5305259653       27.4890427637        3.1543330815
  H        38.6179198008       29.3177673943        1.8453660116
  H        37.0337822490       29.4780407011        6.8329718952
  H        46.1096379888       26.5876597266        3.3907176913
  H        44.6681702756       35.1159363398       15.8090121616
  H        24.3437780842        3.0460389553        4.1880155901
  H        25.4554231015        4.8911070444        5.4374352052
  H        23.2876760539        7.7742224251        3.0849648481
  H        22.1699292475        5.9125853102        1.8557005155
  H        23.7639667154        5.8363578226        6.8108080787
  H        44.9538859473       34.3905071424        1.7004117167
  H        44.9011760103       34.2064651698       14.4856920799
  H        40.6658256887       33.2088585384        2.8582787512
  H        23.1507207020        1.9568288690        0.0104573760
  H        25.7723689765       19.6977868905       11.9730237442
  H        23.6076917065       19.7372274053       10.7328975943
  H        22.3748775906       16.1658600340       12.7864487401
  H        24.5488181362       16.1354309499       14.0195942175
  H        23.7248410724       17.7131147303        9.2398952604
  H        35.1650382239       15.4299345842       12.0132784692
  H        37.2824103485       15.3908122304       10.6894954515
  H        38.6897950670       18.8228621472       12.8667380884
  H        36.5667720861       18.8442924180       14.1899943751
  H        37.2235788303       17.3774413996        9.2406377132
  H        20.3540301708       17.9603427101       12.6618439161
  H        35.1377741114       15.4592860266        4.1206155969
  H        37.2779923149       15.3816993542        5.4045889512
  H        38.7411519892       18.7410081773        3.1509423702
  H        36.6011320429       18.7935049950        1.8590272993
  H        37.2324173922       17.3631716264        6.8015127712
  H        35.1537872576       26.6832796194        3.3995773082
  H        28.5062630287       21.0908246970       15.8905461965
  H        25.7145732185       19.6880086546        4.0865480789
  H        23.5314153074       19.7403561578        5.3106462712
  H        22.3347538439       16.1293894129        3.3070660087
  H        24.5194903126       16.0950382575        2.0855165810
  H        23.7042916603       17.7042299819        6.7985051661
  H        29.0238557439       21.7187395737        1.7369581445
  H        29.1730303119       21.7382853485       14.5540673751
  H        32.0721988868       18.5703360733        3.0039586185
  H        27.4033984684       19.0808881192        0.0947438013
  H        14.8456282248       19.6453452984        4.1479717384
  H        17.0087842414       19.6927241151        5.3904470476
  H        18.3055795299       16.1931378433        3.2524150073
  H        16.1380532288       16.1615038938        2.0101224186
  H        16.9209401165       17.6916303415        6.8491318399
  H        46.0908267021       15.4323952505        4.0645921491
  H        43.9647044504       15.3628146481        5.3677095249
  H        42.5384535777       18.7951594410        3.2026281008
  H        44.6652283679       18.8399191387        1.8887461424
  H        44.0170257154       17.3066461317        6.8257247198
  H        20.2911202195       17.9181058330        3.4244039341
  H        46.0441106429       15.3870439608       12.0268013772
  H        43.9158096176       15.3248730973       10.7276464485
  H        42.5226071346       18.7918073445       12.8581613615
  H        44.6570746753       18.8397661955       14.1590042678
  H        44.0079007678       17.2970829627        9.2646953142
  H        46.1987465108       26.6821736391       12.6182455675
  H        52.7411310710       21.0622285783        0.1996002902
  H        14.8760351075       19.6696738492       11.8876187317
  H        17.0753169887       19.7404872262       10.7043917856
  H        18.3359016413       16.2308472494       12.8467219321
  H        16.1382001735       16.1835393469       14.0386532193
  H        16.9406766702       17.7038738931        9.2864615403
  H        52.3218668355       21.6734958341       14.2902682789
  H        52.0122290900       21.7013807002        1.5002233580
  H        49.0663903725       18.6078771167       13.1995663429
  H        13.2472057912       19.0164574115       15.9728898124
  H        29.8616732810       12.5931765281        4.3899545869
  H        28.7827245496       10.6740927469        5.5569320094
  H        25.3282396713       11.0755457235        3.0153871604
  H        26.4215303771       12.9998394558        1.8624575744
  H        27.0200390036       11.7226007464        6.7911637006
  H        30.9894043625       22.8005441849        4.0025757440
  H        32.0042918612       24.6737603930        5.3036132780
  H        35.7043870574       24.1254403933        3.1813532517
  H        34.6713552113       22.2541000786        1.8799398827
  H        33.6856353411       23.5778696184        6.7580796727
  H        25.6345398724        8.6458642208        3.3807012397
  H        30.9468300700       22.6978740188       11.9218320377
  H        31.9644439092       24.5724131360       10.6240752018
  H        35.6116483397       24.1218874011       12.8589011994
  H        34.5742848359       22.2542305553       14.1593560332
  H        33.6629891578       23.5582172597        9.1971888546
  H        40.6005828317       17.0895444290       12.6481672494
  H        32.5107455308       14.1509548307        0.2635076694
  H        29.8063553488       12.6326702392       11.7750516583
  H        28.7510864141       10.7470622576       10.5342334757
  H        25.2466343419       11.0896014095       13.0143628627
  H        26.3148229074       12.9856136173       14.2371473752
  H        27.0091801180       11.7365957676        9.2423206107
  H        33.2903123698       14.1836655953       14.4273823075
  H        33.4039636047       14.4071480775        1.6124654765
  H        32.1849046644       18.5456288516       13.2122626400
  H        30.2090597568       14.1852379549        0.0898847333
  H        16.1183384937        2.9622875682        4.1352221201
  H        14.9527484999        4.8187342845        5.3284606565
  H        17.3636304790        7.6854917692        3.2154504405
  H        18.5132665429        5.8185500615        2.0154376009
  H        16.7520015540        5.7390661650        6.7764500544
  H        44.8281695104       32.1405029728        3.9824209489
  H        45.9372719121       30.3416016011        5.3120141476
  H        43.6824099481       27.3783947320        3.1579649707
  H        42.5996614478       29.1902126549        1.8153741617
  H        44.2302730310       29.4366862434        6.7741150903
  H        14.8485573993        8.5448928187        3.3685231348
  H        44.9002275242       32.2338740518       11.9265092998
  H        46.0250331984       30.4124619351       10.6473505696
  H        43.7634467731       27.4840271585       12.8405954521
  H        42.6453049260       29.3179571760       14.1189585696
  H        44.2679602626       29.4700614890        9.2132230867
  H        35.0729586175       26.6181470132       12.6285958837
  H        36.6051072230       35.1340220211        0.1855509965
  H        16.1447400300        3.0119960392       11.8980468969
  H        14.9751580262        4.8546712583       10.6812797852
  H        17.3922563469        7.7469704301       12.7519123828
  H        18.5398812847        5.8934655783       13.9798782306
  H        16.7635661493        5.7550839762        9.2140848088
  H        36.2788150066       34.4819936841       14.2683294159
  H        36.3816741561       34.2086888445        1.5043683129
  H        40.5803680861       33.2019707206       13.1486655666
  H        17.4696530872        1.9465549564       15.9688695522
  H        29.3578903498       19.6319116309        4.5579778123
  H        28.7244918876       18.7482236915       11.8829946603
  H        30.5961811874       15.6604509366       11.8999187336
  H        31.0532743116       15.5239432097        4.4599746424
  H        28.0914735101       18.8902256867        6.4052131999
  H        28.9082388312       15.7808647581        6.6881181720
  H        30.2062001967       20.1102518052       10.0933570983
  H        32.1310469027       16.1048559111        9.9322027781
  H        18.8527833974        0.8692115944        4.3396413239
  H        40.5277391682       35.2292049085       11.9472028741
  H        42.3223603194       34.4166881378       11.5872799957
  H        22.0863021432        0.6936955930        4.3554701103
  H        11.5969621816       18.7123832124        4.3873936898
  H        52.2651249438       18.4309726287       11.6728902261
  H        49.2555831184       16.4770539998       11.5794387084
  H        10.1497557684       15.7986784079        4.2985651109
  H        50.8500057658       17.6924089470       11.9492735366
  H        10.0452785083       17.3947584627        4.0570803228
  H        20.2136210735        0.0018370642        4.0471473308
  H        39.1837399624       36.1252782120       11.6829986863
 Ni        30.8193953379       17.8850633722       10.9090497632
 Ni        30.7338430543       16.4793322807        7.9914480076
 Ni        29.5938248596       18.6447218078        8.3271097489
 Ni        30.0547064478       17.4505375426        5.3284184108
  O        10.6498319380       14.3652197968       13.4805881619
  O        12.6131059033       14.6575668056       14.5787293497
  O        49.1478627921       16.8459530616       15.9846830575
  O        50.3500741776       20.9362052861       13.6432492002
  O        48.3484341028       20.5932650906       14.6608263718
  O        11.0512818454       17.0541754053       14.4956218238
  O        50.3210006513       20.8817272439        2.4118040671
  O        48.3467843717       20.5867259710        1.3322117362
  O        49.5434215688       18.2484825064        2.0733627389
  O        12.3588666119       18.6245495732        0.0048811443
  O        48.6931965425       14.1485896967       14.7461206404
  O         8.2098574090       14.2103267091        1.3276276248
  O        10.7352277874       14.5067830740        2.6694612629
  O        12.5718197305       14.5827720963        1.3336805467
  O        22.8444289541        2.0428737778       13.4818694904
  O        21.6046266649        3.5916145774       14.5868165795
  O        42.0581600921       34.1373365204       15.9739293429
  O        37.9816957352       33.1375738490       13.5676438075
  O        39.2183397438       31.5761361989       14.6616951982
  O        20.3082068561        1.0391877660       14.4968078781
  O        38.0248000159       33.1862476000        2.4199653159
  O        39.2192903280       31.5838225033        1.3314048344
  O        40.6523985320       33.7693451208        2.0654987697
  O        18.2548805596        1.3760849158        0.0019051361
  O        44.6221553223       35.1003950289       14.7537377473
  O        24.2052911202       -0.0000563206        1.3258335706
  O        22.7522261383        2.0575824621        2.5892083232
  O        21.6239832359        3.5948214066        1.3441213994
  O        27.4857701332       18.7501619281       13.4922595463
  O        26.7587300131       16.9336831824       14.6507050357
  O        30.6680634735       19.4127116135        0.0775814960
  O        33.5885176848       16.2783695308       13.6638142024
  O        34.2747470299       18.1687621273       14.7326947732
  O        29.5713398345       17.0635525219       14.5819690013
  O        33.5548941954       16.3402376591        2.4215276434
  O        34.3014195456       18.2398021240        1.4137727495
  O        31.6499310249       18.3156794221        2.1666299256
  O        30.3171351295       15.1504794117        0.0915677294
  O        28.5548052298       21.0387397228       14.8344091881
  O        28.5152773396       20.9564117449        1.4113963346
  O        27.4563820207       18.6809468986        2.6636632506
  O        26.6938964301       16.9296931518        1.4179028861
  O        13.1484907667       18.6930176398        2.5925364316
  O        13.9192276450       16.9161702622        1.4100274111
  O        50.5956440489       19.3501523580        0.0256145136
  O        47.6830361914       16.3268946319        2.4222333204
  O        46.9504463932       18.1754623296        1.3307671886
  O        11.0693476137       17.0156931873        1.4947729474
  O        47.6761479421       16.3356762612       13.6479380811
  O        46.9264174463       18.2356386115       14.6588562633
  O        49.5683125515       18.3177886360       13.9772450291
  O        10.3184497598       15.1002793811        0.0022496240
  O        52.6706556658       21.0278663426        1.2469104917
  O        12.1468423181       20.8912471912       14.6682437548
  O        13.1081285449       18.6136398697       13.3205952216
  O        13.9570147633       16.9867885478       14.6606127754
  O        29.9623970725       14.4983852567        2.7456305688
  O        28.0802472360       14.6576705523        1.4894335373
  O        32.0866420550       16.8733278894        0.0936938272
  O        30.9629687744       20.9509328216        2.4188244945
  O        32.9448325416       20.6038995148        1.3478994750
  O        29.5621119495       17.0829484618        1.5821623289
  O        30.9053351551       20.8781387637       13.5815656266
  O        32.8803092963       20.5848306919       14.6637713079
  O        31.6851953318       18.2547462240       13.9920895606
  O        28.2876066760       18.6799577189        0.0807352732
  O        32.4890371595       14.2147854436        1.3372627782
  O        32.4021492161       14.2123261450       14.8198357568
  O        29.8726364540       14.5054651768       13.4076568532
  O        28.0414952915       14.5882185083       14.7481751195
  O        17.8891454749        1.9665101209        2.6680941377
  O        18.9558587436        3.5273001313        1.4133275134
  O        39.1685744978       34.1386759245        0.0021725627
  O        43.2802208042       33.0590508892        2.3368696760
  O        42.0346666103       31.5064226572        1.2467944175
  O        20.3173502480        1.0364319868        1.4854102658
  O        43.2760837897       33.1825749185       13.5697285285
  O        42.0053722173       31.5840521378       14.5778335543
  O        40.5791001499       33.7748434238       13.9305618465
  O        22.3671744112        1.3842400303        0.0029865358
  O        36.6726770177       35.0997355393        1.2383146901
  O        16.4453787484        0.0641964253       14.6631863025
  O        17.9364126232        2.0432953580       13.3212156091
  O        18.9186554090        3.5931618207       14.6608764040
  O        29.6583999348       18.8343332014       12.1501797232
  O        29.7897490395       18.9127185023        4.0676796791
  O        31.2589465230       16.3325055433       12.1520704330
  O        31.2254140583       16.4056503229        4.0780079274
  O        31.6526845319       16.8466235851        9.5155884010
  O        29.8625280894       15.8263943493        6.4960065164
  O        30.6701627131       19.4175248260        9.5858147100
  O        28.8827542202       18.3922986083        6.6724120395
  O        39.4567396025       35.2439675172       11.9968476537
  O        19.1405686284        0.0042754230        3.9958992539
  O        41.9697952607       35.1728057670       12.0818446176
  O        21.6912949689       -0.0693312733        3.9014111528
  O        51.3651391562       18.6143703686       12.0003686568
  O        10.7510730501       18.7472235302        3.9101283706
  O        50.0801364010       16.4128536984       12.0865860125
  O         9.5239433075       16.4831983522        3.9962923360
 Zr         9.2961448092       16.0528607535       14.1771787178
 Zr        49.8356087907       16.0067359756        1.7517927032
 Zr        22.0732017562        0.0297366576       14.1841117792
 Zr        42.4608136355       35.1535210481        1.8062788572
 Zr        29.6096195039       19.0833712379       14.2967449045
 Zr        29.5802920529       19.1754620949        1.8721640821
 Zr        11.0372179900       19.0520794602        1.8328241589
 Zr        11.0430188918       19.1550300623       14.2462678724
 Zr        31.3354685679       16.1081604763        1.9109573359
 Zr        31.3996049380       16.0165246087       14.2875157418
 Zr        18.6009741853       -0.0016699463        1.7682879773
 Zr        18.5063963406       -0.0081928054       14.2087289280
 Zr        12.3010017611       16.3236034365       15.9852530722
 Zr        48.6151172742       18.8327886408        0.0155220797
 Zr        20.3142782966        2.4727470395       15.9855518807
 Zr        40.6435687447       32.6868270597       15.9732724510
 Zr        28.3493186024       16.3428816939        0.0877057434
 Zr        32.6307949431       18.8355656567        0.0649087686
  H        33.1635447941       15.0994444067        6.7755949357
  H        32.7997985145       15.7304568913        6.9151047500
