     570
 i =      305, E =     -4745.6105433319
  C        11.8585613906       14.0535918279       13.7364796708
  C        12.4560767445       12.8905566484       13.0181850787
  C        11.7045133077       12.1719027691       12.0762312268
  C        12.2808837302       11.1096845213       11.3838746948
  C        13.6213310529       10.7396148803       11.6118826477
  C        14.3543219193       11.4428716711       12.5857139285
  C        13.7814438968       12.5078527941       13.2772261655
  C        14.2609481339        9.6489949471       10.8384892651
  C        14.2563825842        9.6569681710        9.4167816026
  C        13.7432142450       10.7590797377        8.6628532831
  C        49.1264665055       21.2333053862       13.8746452231
  C        48.5496310386       22.4010652843       13.1474886815
  C        49.2998250644       23.0686593711       12.1667876098
  C        48.7328689446       24.1077256260       11.4335345871
  C        47.4021962284       24.5091058570       11.6618745487
  C        46.6710617927       23.8599480087       12.6750738632
  C        47.2335335049       22.8151001207       13.4045023585
  C        46.7720871400       25.5868674436       10.8645893612
  C        46.7613664267       25.5573894593        9.4428265133
  C        47.2613514515       24.4423191206        8.6993376716
  C        14.8603871090        8.5706592695        8.7035181463
  C        14.8916301264        8.5969691213       11.5151194183
  C        49.1130837496       21.2034681187        2.1504657748
  C        48.5277282742       22.3647539979        2.8776091053
  C        49.2670966902       23.0257133382        3.8702738357
  C        48.6907900142       24.0603016258        4.6016825790
  C        47.3602319380       24.4567828932        4.3637244125
  C        46.6396518242       23.8116206561        3.3404799398
  C        47.2131761986       22.7756589552        2.6087490232
  C        46.7218996474       25.5318389468        5.1547201842
  C        46.7337541687       25.5282862667        6.5764172344
  C        47.2491617194       24.4290536549        7.3327852463
  C        40.6188056974       17.0884545340        7.3158852809
  C        40.6279506593       17.0972476146        4.5062520145
  C        11.8827847837       14.0865502985        2.2905390602
  C        12.4720636609       12.9106037771        2.9947322322
  C        11.7145929256       12.1776260088        3.9210437201
  C        12.2811336907       11.0951795754        4.5895398780
  C        13.6198000316       10.7211092366        4.3574178087
  C        14.3576696327       11.4363690559        3.3963021321
  C        13.7922869021       12.5175320549        2.7235605809
  C        14.2534789297        9.6244456134        5.1278943153
  C        14.2524383714        9.6445344072        6.5497364797
  C        13.7426196540       10.7535121754        7.2968057471
  C        22.5106113890        3.2446518897       13.7465708168
  C        23.2223628255        4.3501761062       13.0433198520
  C        24.2205954251        4.0698879130       12.0985417813
  C        24.8463051913        5.1089311862       11.4143221086
  C        24.4894015705        6.4507253041       11.6544617807
  C        23.5182756540        6.7226384396       12.6354167986
  C        22.8882258773        5.6853749386       13.3182718384
  C        25.0967817401        7.5567873721       10.8789642733
  C        25.0771816438        7.5475154671        9.4570996049
  C        24.3797492813        6.5467711542        8.7084652877
  C        38.3023545415       31.9288254070       13.8438305469
  C        37.5727566125       30.8392870186       13.1346868149
  C        36.6111366793       31.1427228656       12.1586898210
  C        35.9937957051       30.1222792102       11.4407215657
  C        36.3234261761       28.7731459542       11.6766033230
  C        37.2553642888       28.4771848923       12.6892233570
  C        37.8766271311       29.4962636578       13.4063353194
  C        35.7221226749       27.6813298336       10.8785086566
  C        35.7516061542       27.6986179580        9.4570863088
  C        36.4536667262       28.7040112841        8.7203041079
  C        25.7038042690        8.6164959063        8.7387217694
  C        25.6894657259        8.6335004872       11.5510497298
  C        38.3283861362       31.9625502413        2.1608107309
  C        37.6054920318       30.8905263864        2.9017320164
  C        36.6768408208       31.2006880183        3.9070256039
  C        36.0654484475       30.1830881981        4.6364293841
  C        36.3687062926       28.8302270765        4.3840047277
  C        37.2747197602       28.5301382431        3.3483377210
  C        37.8881401656       29.5441565516        2.6200324508
  C        35.7607251475       27.7315849536        5.1681343067
  C        35.7713188125       27.7245005003        6.5900667475
  C        36.4629537019       28.7165286016        7.3537480202
  C        46.1357793728       26.6209480774        7.2865295486
  C        46.0877868611       26.5800756829        4.4786316212
  C        22.4633744639        3.2556251262        2.2614037260
  C        23.1637976587        4.3635292945        2.9807676376
  C        24.1710208165        4.0752796833        3.9154906116
  C        24.8050343939        5.1038583754        4.6085775113
  C        24.4519444406        6.4504790406        4.3898200220
  C        23.4679957366        6.7321423935        3.4232352397
  C        22.8296005749        5.7037588781        2.7304011122
  C        25.0853312217        7.5471031849        5.1649001047
  C        25.0723316738        7.5416906478        6.5877202154
  C        24.3753307424        6.5452868825        7.3417467067
  C        26.6152136900       17.8592860606       13.7791042299
  C        25.3084956305       17.9050426854       13.0551358014
  C        25.0435523251       18.9081408657       12.1090915991
  C        23.8315435132       18.9260025402       11.4214193935
  C        22.8469348711       17.9455098429       11.6593722223
  C        23.1072085433       16.9658427546       12.6363527578
  C        24.3216253948       16.9415349847       13.3205226372
  C        21.5743321151       17.9308247320       10.8940857701
  C        21.5757751253       17.9121767992        9.4716410069
  C        22.7822010546       17.7921886414        8.7120151208
  C        34.4386405071       17.1963146972       13.9141111152
  C        35.7306362543       17.1458133936       13.1697366753
  C        35.9361725594       16.1737245080       12.1782942621
  C        37.1161456209       16.1592436609       11.4402961571
  C        38.1237753800       17.1151372990       11.6742128076
  C        37.9215777333       18.0675193283       12.6912558838
  C        36.7382040329       18.0879605523       13.4259833333
  C        39.3767605289       17.1209862072       10.8850317887
  C        39.3682315669       17.1253110097        9.4630055574
  C        38.1590080078       17.2464016782        8.7085269996
  C        20.3296900009       17.9292887635        8.7621899599
  C        20.3493349248       17.9314966273       11.5757627417
  C        34.4376817251       17.2379682447        2.1980185812
  C        35.7375153997       17.1349653859        2.9199864780
  C        35.9347627606       16.1656602730        3.9149204302
  C        37.1256209931       16.1335586170        4.6364498440
  C        38.1478203644       17.0695889148        4.3834531424
  C        37.9558881205       18.0111062135        3.3547331402
  C        36.7648584766       18.0485252379        2.6364098224
  C        39.3979864739       17.0859642634        5.1749702691
  C        39.3788513229       17.1080872428        6.5965363671
  C        38.1642179683       17.2368546303        7.3418496759
  C        35.1443609751       26.6429789694        7.2934397507
  C        35.1711616038       26.6611154212        4.4843797388
  C        26.5715974996       17.8281561417        2.3296295277
  C        25.2568010441       17.8731990786        3.0363586858
  C        24.9910184080       18.8799689301        3.9768374078
  C        23.7735532741       18.9046422536        4.6514755259
  C        22.7922284867       17.9227836427        4.4085698228
  C        23.0521463022       16.9409448860        3.4354037601
  C        24.2705837451       16.9139552884        2.7595051159
  C        21.5284956250       17.9043716762        5.1814592197
  C        21.5520369461       17.8967188008        6.6029793504
  C        22.7703465992       17.7843597149        7.3457198984
  C        14.0463338217       17.8287438076        2.2938601562
  C        15.3510062636       17.8854289036        3.0193478384
  C        15.6084786042       18.8892360045        3.9660178435
  C        16.8175561581       18.9096976036        4.6588473187
  C        17.8032677324       17.9291374038        4.4269889622
  C        17.5505705666       16.9494394816        3.4482514379
  C        16.3409269086       16.9244429450        2.7570639442
  C        19.0723187048       17.9118041542        5.1961336060
  C        19.0706077856       17.9089651489        6.6185989022
  C        17.8632069177       17.8100711364        7.3792491212
  C        46.8015348114       17.2159613922        2.1622323625
  C        45.5078400830       17.1448931410        2.9022737387
  C        45.3035552813       16.1617641979        3.8832331593
  C        44.1193823749       16.1329404225        4.6153643840
  C        43.1076764822       17.0869918859        4.3899078576
  C        43.3085313778       18.0486168650        3.3808549416
  C        44.4936594650       18.0814380932        2.6493895793
  C        41.8545372772       17.0912413619        5.1807558880
  C        41.8637433311       17.0975698956        6.6031743716
  C        43.0745021200       17.1964782159        7.3585062216
  C        20.3170993546       17.9206128719        7.3273858139
  C        20.2967410983       17.8921179997        4.5143702522
  C        46.7850197455       17.2323896357       13.8813000110
  C        45.4838691858       17.1285992158       13.1614789651
  C        45.2658829929       16.1294155529       12.2005325598
  C        44.0787145371       16.1020652539       11.4726913635
  C        43.0792337601       17.0711125175       11.6876129302
  C        43.2884699517       18.0412656205       12.6857933694
  C        44.4764749319       18.0747170838       13.4092349203
  C        41.8313904411       17.0901887062       10.8924684526
  C        41.8521627562       17.0957232288        9.4710728916
  C        43.0691230334       17.1925094118        8.7253804583
  C        46.1535007587       26.6373452297        8.7210717466
  C        46.1620038605       26.6559016687       11.5307284276
  C        14.0445299029       17.8308745100       13.7033478871
  C        15.3651302975       17.9034991891       13.0117113289
  C        15.6400556269       18.9202745513       12.0852068659
  C        16.8689381694       18.9563792300       11.4301081143
  C        17.8500090819       17.9748808357       11.6761582243
  C        17.5817223564       16.9864938770       12.6404256129
  C        16.3549094685       16.9499503032       13.2990329969
  C        19.1174829696       17.9499270866       10.9078448248
  C        19.0942610196       17.9273928332        9.4864100823
  C        17.8747221652       17.8183186745        8.7452462023
  C        28.7959287435       14.1160530357        2.4024330033
  C        28.1989068305       12.9350375752        3.0895646671
  C        28.9261844450       12.1995150128        4.0369286421
  C        28.3357222380       11.1157171760        4.6829007846
  C        27.0037502723       10.7446525844        4.4075297913
  C        26.2993504333       11.4608472681        3.4229838126
  C        26.8877256122       12.5430072498        2.7740537664
  C        26.3383335048        9.6600528482        5.1660181926
  C        26.3194287263        9.6870368835        6.5869964452
  C        26.8178901333       10.8012090497        7.3339585477
  C        32.1788396391       21.2408157447        2.1522122875
  C        32.7716332911       22.4090441873        2.8666541565
  C        32.0256078002       23.0837792949        3.8452676914
  C        32.5969498999       24.1229565005        4.5729213103
  C        33.9296270182       24.5153512669        4.3425575844
  C        34.6574448849       23.8602541199        3.3313631888
  C        34.0888426349       22.8153069001        2.6057443581
  C        34.5593033102       25.5895931428        5.1434500142
  C        34.5547854329       25.5582753803        6.5651015020
  C        34.0539137368       24.4388778122        7.3018991244
  C        25.7064201456        8.6097243284        7.3040440162
  C        25.7044375782        8.6084814875        4.4907422600
  C        32.1213842287       21.1958463602       13.8435566102
  C        32.7090430702       22.3525994831       13.1066723436
  C        31.9759083603       23.0109549872       12.1075181004
  C        32.5520805434       24.0500218716       11.3811816525
  C        33.8764798441       24.4585482987       11.6336813604
  C        34.5916625710       23.8142496033       12.6611992733
  C        34.0190597067       22.7716636595       13.3850467139
  C        34.5144398240       25.5433741693       10.8530731958
  C        34.5314482035       25.5348337753        9.4310615287
  C        34.0424250508       24.4276722410        8.6685163987
  C        40.6127233417       17.0926272717        8.7507429185
  C        40.6022409164       17.1202195824       11.5609821508
  C        28.7185589039       14.0951083800       13.7804866182
  C        28.1120827539       12.9437610679       13.0493549850
  C        28.8532177404       12.2364410929       12.0902242879
  C        28.2764826592       11.1720025472       11.4017436131
  C        26.9421706802       10.7891371595       11.6458118471
  C        26.2187926156       11.4824904736       12.6343438263
  C        26.7944901472       12.5462263977       13.3263077317
  C        26.3043560264        9.6950608857       10.8748407325
  C        26.3029495004        9.7054300690        9.4530431843
  C        26.8079045534       10.8113145576        8.6995263498
  C        18.1353355772        3.1809008827        2.3221944464
  C        17.4058287156        4.2781673255        3.0206673522
  C        16.3905200472        3.9996991149        3.9485869365
  C        15.7427030671        5.0396275887        4.6120946275
  C        16.0942236036        6.3833996832        4.3721386299
  C        17.0831152570        6.6529986231        3.4078821006
  C        17.7323124777        5.6157144455        2.7428392030
  C        15.4699324954        7.4910962009        5.1352071860
  C        15.4854838805        7.4905620670        6.5569205781
  C        16.1871147505        6.4970099371        7.3101053926
  C        42.9458576702       31.8594018003        2.0780106254
  C        43.6462016256       30.7718015282        2.8219390230
  C        44.5920038111       31.0931404285        3.8077645358
  C        45.1977316751       30.0875865245        4.5553801131
  C        44.8710755890       28.7345381157        4.3407236243
  C        43.9449072061       28.4201962630        3.3278318823
  C        43.3360603390       29.4253320252        2.5798134428
  C        45.4887477893       27.6552906156        5.1439067910
  C        45.4930274067       27.6810345320        6.5655967785
  C        44.8059642316       28.6891098189        7.3122038652
  C        14.8565491455        8.5630776452        7.2692876767
  C        14.8744988200        8.5627847913        4.4566278850
  C        42.9464462197       31.9614731207       13.8038329404
  C        43.6915489072       30.8854049290       13.0902790874
  C        44.6564266460       31.1912866622       12.1182291842
  C        45.2779267712       30.1716756184       11.4005335285
  C        44.9538049282       28.8213750023       11.6378672770
  C        44.0199185403       28.5237345259       12.6482814166
  C        43.3916777124       29.5405166680       13.3604481220
  C        45.5629161190       27.7239974874       10.8526451684
  C        45.5334458935       27.7174566588        9.4313454531
  C        44.8272009702       28.7077391879        8.6783900697
  C        35.1334301738       26.6304237791        8.7281292783
  C        35.1211278448       26.6031368045       11.5379073462
  C        18.1485753562        3.2468879360       13.7015479044
  C        17.4298738471        4.3438021217       12.9923506432
  C        16.4149394528        4.0525075386       12.0685040409
  C        15.7666291827        5.0831267185       11.3930777618
  C        16.1210352587        6.4283869767       11.6160285669
  C        17.1120974544        6.7117838821       12.5736143803
  C        17.7597641632        5.6828790840       13.2534030559
  C        15.4905955778        7.5240977032       10.8435516674
  C        15.4966095454        7.5075585905        9.4224142000
  C        16.1934172379        6.5058945545        8.6757078915
  H        10.6724780184       12.4662558746       11.8990066453
  H        11.6946401452       10.5514005223       10.6571443462
  H        15.3912220655       11.1679793733       12.7677272636
  H        14.3507349234       13.0708396589       14.0129738473
  H        13.3761080014       11.6311670634        9.1961560135
  H        50.3226127127       22.7487853024       11.9822336311
  H        49.3194080507       24.6231535424       10.6761146381
  H        45.6414043060       24.1603718299       12.8579099192
  H        46.6623055403       22.2896184521       14.1662740228
  H        47.6296786412       23.5758508615        9.2410182528
  H        14.8717501921        8.5881122637       12.6034217406
  H        50.2872200056       22.7030244739        4.0650277267
  H        49.2692165185       24.5759086734        5.3650533705
  H        45.6100742043       24.1084933469        3.1517534727
  H        46.6521093372       22.2532147308        1.8375505016
  H        47.6078057946       23.5518725470        6.8018983305
  H        40.6307641924       17.0586114093        3.4185692183
  H        48.6869317671       14.0949468306       15.7948606472
  H        10.6812160529       12.4669352947        4.0986312291
  H        11.6893372575       10.5249530460        5.3023706060
  H        15.3929553151       11.1581431303        3.2100821013
  H        14.3645025931       13.0866720181        1.9947580652
  H        13.3756649545       11.6220567823        6.7581468302
  H        47.9299981529       14.2185115018        1.7158193214
  H        47.7798858982       14.3733753848       14.4899997933
  H        49.0821158685       18.5517228129        2.8720291388
  H        10.4156307190       14.1344243964        0.0038904451
  H        24.4842205510        3.0313542979       11.9110383499
  H        25.6212142148        4.8909052322       10.6825957096
  H        23.2345784059        7.7554218746       12.8270032202
  H        22.1167607605        5.8860723519       14.0576919531
  H        23.8164084385        5.7901566920        9.2468610600
  H        36.3723682302       32.1857769425       11.9649388880
  H        35.2477497310       30.3610446340       10.6859542171
  H        37.5174493282       27.4382547478       12.8784016267
  H        38.6216770121       29.2754556859       14.1670031989
  H        37.0171656804       29.4548105654        9.2665566918
  H        25.7185197402        8.6182075323       12.6390831075
  H        36.4553301351       32.2452144708        4.1140633625
  H        35.3397931391       30.4286508069        5.4086456421
  H        37.5202428260       27.4895084121        3.1470270717
  H        38.6102136055       29.3176513230        1.8393773138
  H        37.0346905027       29.4764633299        6.8289571872
  H        46.1089341740       26.5873340285        3.3905874646
  H        44.6680695061       35.1160074543       15.8088519682
  H        24.4474578639        3.0363833778        4.0807936234
  H        25.5889872093        4.8728150012        5.3266790033
  H        23.1834455178        7.7672136133        3.2452746003
  H        22.0540786854        5.9187059448        1.9988085432
  H        23.8080901724        5.7880336391        6.8083144375
  H        44.9532019192       34.3897503756        1.6998277979
  H        44.9010509471       34.2065800594       14.4854678206
  H        40.6654535253       33.2085562382        2.8579177098
  H        23.1506695799        1.9574956608        0.0096057372
  H        25.7975834168       19.6712378119       11.9295864553
  H        23.6313067891       19.7095994580       10.6937210296
  H        22.3583710320       16.2003485579       12.8294556269
  H        24.5331529278       16.1715570260       14.0588676937
  H        23.7230552252       17.6754626477        9.2420644399
  H        35.1534061724       15.4416284103       11.9952072010
  H        37.2731860219       15.3991252577       10.6781989203
  H        38.6909998826       18.8144006405       12.8756934208
  H        36.5655796565       18.8385705976       14.1938118784
  H        37.2210072093       17.3803952990        9.2400267289
  H        20.3551609005       17.9697128566       12.6636956444
  H        35.1375513328       15.4551264833        4.1213117964
  H        37.2760345735       15.3792098172        5.4055458464
  H        38.7375657673       18.7407303726        3.1537689193
  H        36.5970285891       18.7949496229        1.8638693129
  H        37.2295959093       17.3634328474        6.8028585250
  H        35.1419451404       26.6884902184        3.3967649811
  H        28.5097389721       21.0922152557       15.8964956628
  H        25.7508436887       19.6363612099        4.1600142008
  H        23.5669076675       19.6898575422        5.3755284693
  H        22.3025773318       16.1762662199        3.2420106723
  H        24.4873712822       16.1443580043        2.0224978380
  H        23.7020700989       17.6616935696        6.8016326593
  H        29.0081346235       21.7217613808        1.7507660719
  H        29.1579708058       21.7497044317       14.5526743032
  H        32.0664131135       18.5657576921        3.0167470173
  H        27.4084766203       19.0847925442        0.0988262820
  H        14.8505513949       19.6489374749        4.1436502360
  H        17.0134261660       19.6943584494        5.3865051551
  H        18.3010861137       16.1843336073        3.2603708583
  H        16.1341089050       16.1548108052        2.0172171168
  H        16.9209743732       17.6948421626        6.8514021725
  H        46.0903554134       15.4336583021        4.0659541997
  H        43.9638942376       15.3631574182        5.3680963339
  H        42.5362086541       18.7935953216        3.2008468189
  H        44.6632288596       18.8391742973        1.8879053381
  H        44.0149505726       17.3072922101        6.8263570058
  H        20.2910299529       17.9212272784        3.4262189691
  H        46.0421278489       15.3878213825       12.0261182025
  H        43.9126492695       15.3256328640       10.7290728926
  H        42.5224918852       18.7944229199       12.8584769794
  H        44.6579387817       18.8423925931       14.1574554924
  H        44.0055820312       17.2992418952        9.2652440339
  H        46.1985028505       26.6822650512       12.6181907182
  H        52.7410060719       21.0625590523        0.1997568858
  H        14.8808943536       19.6758461445       11.8952722727
  H        17.0816933905       19.7477805506       10.7146067243
  H        18.3306591485       16.2221796735       12.8374404253
  H        16.1319725956       16.1744026072       14.0277359293
  H        16.9411433015       17.7094489550        9.2890041837
  H        52.3219550379       21.6731337401       14.2893651709
  H        52.0129740052       21.7018990970        1.5007884835
  H        49.0668499091       18.6079038396       13.1992930072
  H        13.2471317908       19.0165921660       15.9720237814
  H        29.9517176161       12.4903553339        4.2533537977
  H        28.9018033517       10.5440027508        5.4151317377
  H        25.2703142598       11.1847002893        3.2022263913
  H        26.3410372268       13.1162740417        2.0293926207
  H        27.1827910736       11.6697216542        6.7941842372
  H        31.0025954807       22.7666104863        4.0321222238
  H        32.0143906208       24.6442866547        5.3292863769
  H        35.6889369554       24.1541681623        3.1481768310
  H        34.6570043645       22.2831641635        1.8462828154
  H        33.7041669553       23.5675545985        6.7554858472
  H        25.7372006235        8.5890660028        3.4027971861
  H        30.9566733362       22.6881142500       11.9084630749
  H        31.9772111556       24.5619486503       10.6125931493
  H        35.6169255385       24.1184577914       12.8615021741
  H        34.5764928633       22.2522780134       14.1610182659
  H        33.6847094550       23.5469484953        9.1943963172
  H        40.5982020623       17.0889953424       12.6488741468
  H        32.5083488122       14.1524508002        0.2734568224
  H        29.8844278668       12.5291036100       11.9059344132
  H        28.8589556503       10.6187162541       10.6682334216
  H        25.1867391737       11.1988387835       12.8302159388
  H        26.2332978809       13.0962057867       14.0781139970
  H        27.1637337566       11.6879227376        9.2327993621
  H        33.2903047678       14.1872370864       14.4290538493
  H        33.4026388250       14.4144552815        1.6137845157
  H        32.1355996672       18.5236674046       13.1782852106
  H        30.2146909766       14.1872691558        0.0945131395
  H        16.1187542009        2.9631536542        4.1352023995
  H        14.9535142036        4.8201321628        5.3280081857
  H        17.3651046939        7.6859307713        3.2144316567
  H        18.5139295497        5.8183932984        2.0145469867
  H        16.7536023922        5.7396218381        6.7766035752
  H        44.8284675164       32.1402046370        3.9817977864
  H        45.9377764564       30.3412787446        5.3111720840
  H        43.6818718324       27.3781672897        3.1579825706
  H        42.5991546507       29.1899577566        1.8154371630
  H        44.2304860564       29.4367749317        6.7738851554
  H        14.8504643816        8.5458584982        3.3684169091
  H        44.9002333486       32.2339459783       11.9269993904
  H        46.0250329658       30.4128309627       10.6474717991
  H        43.7625329247       27.4840418155       12.8395039327
  H        42.6448688328       29.3176834517       14.1185793013
  H        44.2685333078       29.4705241848        9.2129604419
  H        35.0788246837       26.6142132111       12.6254132080
  H        36.6049918981       35.1339903773        0.1857911848
  H        16.1440318680        3.0129077971       11.8986236670
  H        14.9744765357        4.8562242759       10.6828212405
  H        17.3952960081        7.7472844923       12.7507759553
  H        18.5423247773        5.8932948085       13.9785155245
  H        16.7648004255        5.7556153172        9.2141408615
  H        36.2786051793       34.4821968083       14.2682492611
  H        36.3807796665       34.2092421688        1.5049426411
  H        40.5797391150       33.2020833330       13.1485854361
  H        17.4707695177        1.9470285414       15.9689755181
  H        29.0639600553       19.3950829500        4.5353920457
  H        28.8195545268       18.5886104287       11.9079049296
  H        30.4702944589       15.6786418683       11.9579581202
  H        31.1410105243       15.6227366523        4.6004608949
  H        28.0227085477       17.8086397285        6.6850073888
  H        29.1572682844       15.5978027112        6.6218243405
  H        30.1524618662       19.8640524486       10.1148885172
  H        32.1089084021       16.0171498154       10.1485762269
  H        18.8530904041        0.8688106971        4.3404705868
  H        40.5278186507       35.2292550791       11.9470790477
  H        42.3236246392       34.4185804823       11.5858918641
  H        22.0878011047        0.6919470295        4.3567552671
  H        11.5969857198       18.7129054489        4.3874617445
  H        52.2647642355       18.4308984949       11.6724638305
  H        49.2545968747       16.4773280827       11.5798323003
  H        10.1502401743       15.7982064960        4.2977455678
  H        50.8497225382       17.6924711640       11.9492261545
  H        10.0459468439       17.3945394610        4.0570745735
  H        20.2141717909        0.0020275957        4.0472125480
  H        39.1834047696       36.1243253307       11.6813122341
 Ni        30.8225694148       17.7870180111       10.9894201061
 Ni        30.8613318323       16.4102796719        8.0806463910
 Ni        29.8039782006       18.5788320351        8.0805673398
 Ni        30.0186603202       17.4682799491        5.4061108988
  O        10.6498744866       14.3651362632       13.4806953071
  O        12.6131243700       14.6575547209       14.5787851522
  O        49.1477497739       16.8460368987       15.9847391402
  O        50.3500598430       20.9361253832       13.6431762503
  O        48.3484606613       20.5932744512       14.6609361182
  O        11.0513171501       17.0540408273       14.4955268504
  O        50.3209923222       20.8816582749        2.4118770463
  O        48.3467334902       20.5867250199        1.3322202147
  O        49.5435101345       18.2484747573        2.0734153830
  O        12.3588240035       18.6245639562        0.0048897638
  O        48.6931828310       14.1486472595       14.7461717865
  O         8.2098169643       14.2104319597        1.3276623222
  O        10.7352955006       14.5067301332        2.6694606925
  O        12.5717889831       14.5828384051        1.3336135529
  O        22.8449046621        2.0438365449       13.4819229414
  O        21.6055632430        3.5925870688       14.5844533646
  O        42.0581087942       34.1372715258       15.9738177472
  O        37.9816515098       33.1373594744       13.5674976196
  O        39.2181977419       31.5760792979       14.6615404564
  O        20.3083634256        1.0396103702       14.4969618117
  O        38.0249905882       33.1865726834        2.4198662058
  O        39.2192368503       31.5839687803        1.3314586435
  O        40.6523034357       33.7693370493        2.0653415704
  O        18.2555609336        1.3760195577        0.0018829116
  O        44.6221966983       35.1005651957       14.7536106199
  O        24.2054028726       -0.0000089910        1.3259277817
  O        22.7531934809        2.0575126506        2.5889411248
  O        21.6249967666        3.5966258775        1.3487103639
  O        27.4951749559       18.7494118267       13.4881935076
  O        26.7604185554       16.9360363205       14.6499422688
  O        30.6687764990       19.4106948717        0.0816153926
  O        33.5820131759       16.2795654932       13.6621727015
  O        34.2742933759       18.1666555154       14.7340505372
  O        29.5699094246       17.0637212525       14.5831456845
  O        33.5494096456       16.3408530121        2.4267029398
  O        34.3002323564       18.2374253933        1.4145276844
  O        31.6489875745       18.3177568151        2.1739105569
  O        30.3180979438       15.1530744175        0.0964446179
  O        28.5550951055       21.0391449406       14.8380760987
  O        28.5156543985       20.9546799285        1.4118568526
  O        27.4573013518       18.6805004002        2.6645829233
  O        26.6943256345       16.9301823447        1.4182304804
  O        13.1488577929       18.6929554104        2.5926326621
  O        13.9194626131       16.9161693608        1.4101581010
  O        50.5956688360       19.3501176415        0.0257277065
  O        47.6826035783       16.3271231850        2.4223550606
  O        46.9501919623       18.1755094848        1.3308214995
  O        11.0694195066       17.0156936878        1.4948073170
  O        47.6757826245       16.3358671355       13.6477943653
  O        46.9263160335       18.2357550784       14.6587959338
  O        49.5683951337       18.3177313486       13.9772253968
  O        10.3184446322       15.1002918357        0.0022048644
  O        52.6707080696       21.0278961557        1.2469304693
  O        12.1467886640       20.8911771907       14.6681029447
  O        13.1080642957       18.6136851418       13.3205122800
  O        13.9570075011       16.9868570258       14.6604555625
  O        29.9662337533       14.5028588868        2.7479740855
  O        28.0818128207       14.6567146261        1.4934130578
  O        32.0822136591       16.8717132643        0.1084091380
  O        30.9640459762       20.9505325098        2.4170452112
  O        32.9458769259       20.6019529719        1.3461548539
  O        29.5636457091       17.0826860473        1.5830522975
  O        30.9073604354       20.8788719841       13.5830485020
  O        32.8812135439       20.5847008087       14.6649200046
  O        31.6872434579       18.2526987805       13.9983601449
  O        28.2912559717       18.6805177589        0.0844523854
  O        32.4875262249       14.2172383373        1.3425004706
  O        32.4013128335       14.2126360254       14.8199683532
  O        29.8728281009       14.5038393943       13.4106326330
  O        28.0404354542       14.5864025079       14.7460821788
  O        17.8892385487        1.9666676768        2.6679415766
  O        18.9563062495        3.5271369982        1.4131059053
  O        39.1687545170       34.1388324970        0.0022458260
  O        43.2802174876       33.0589493747        2.3367675226
  O        42.0345423590       31.5064948931        1.2466911392
  O        20.3176784633        1.0367103847        1.4853505513
  O        43.2760888044       33.1825787903       13.5697901608
  O        42.0052956924       31.5840973440       14.5778877765
  O        40.5789998228       33.7749170325       13.9306095194
  O        22.3672929669        1.3846439226        0.0030785063
  O        36.6726735353       35.0998174288        1.2383723020
  O        16.4455063633        0.0642128852       14.6631189137
  O        17.9364767503        2.0433842866       13.3212922212
  O        18.9190611327        3.5931244448       14.6608732898
  O        29.7353145219       18.8285240273       12.1512559494
  O        29.7817470639       18.9057960835        4.0912846213
  O        31.1724437857       16.3316515527       12.1570745057
  O        31.1770485892       16.4895932081        4.1536196877
  O        31.7612609275       16.7869941702        9.6599031594
  O        30.0772499799       15.8916695532        6.5002412170
  O        30.5871719526       19.1153341815        9.6655902989
  O        28.7978661700       18.3857423569        6.5643319592
  O        39.4567699161       35.2437820334       11.9968633369
  O        19.1410367567        0.0043849829        3.9956983055
  O        41.9697914745       35.1729522267       12.0821884180
  O        21.6913047475       -0.0693247483        3.9009971620
  O        51.3649446343       18.6142717853       12.0003749469
  O        10.7511411207       18.7472260827        3.9100328454
  O        50.0792979168       16.4128303420       12.0866773499
  O         9.5244086911       16.4830917685        3.9962824451
 Zr         9.2959934979       16.0529126215       14.1772069852
 Zr        49.8355264265       16.0069379350        1.7517340618
 Zr        22.0729645132        0.0293569191       14.1841171453
 Zr        42.4606700713       35.1528487000        1.8060539355
 Zr        29.6213789508       19.0935292985       14.3063221020
 Zr        29.5783841562       19.1786144285        1.8988948924
 Zr        11.0373260341       19.0522036571        1.8327708170
 Zr        11.0430606974       19.1550238260       14.2463220152
 Zr        31.3257721931       16.1205136267        1.9338954155
 Zr        31.4016613361       16.0226400813       14.3140642475
 Zr        18.6008568013       -0.0018629104        1.7684003825
 Zr        18.5062083554       -0.0083660423       14.2085915689
 Zr        12.3010892182       16.3236210197       15.9852542046
 Zr        48.6149962432       18.8328977080        0.0156296765
 Zr        20.3150160574        2.4728910920       15.9856996303
 Zr        40.6430521591       32.6863457674       15.9730697600
 Zr        28.3476982983       16.3481633827        0.0861915030
 Zr        32.6321967355       18.8435193945        0.0641771173
  H        33.0798625739       16.8474310529        6.9066099003
  H        33.5841444591       16.7913436775        6.3669743914
