     570
 i =      339, E =     -4745.5993607736
  C        11.8586239271       14.0535867090       13.7365003974
  C        12.4561727834       12.8906089196       13.0181494401
  C        11.7045288225       12.1717917541       12.0763814574
  C        12.2808922252       11.1095374042       11.3840750381
  C        13.6214137851       10.7396507788       11.6119314041
  C        14.3545301178       11.4431350499       12.5854973447
  C        13.7816586424       12.5081582228       13.2769517368
  C        14.2609927633        9.6489931009       10.8385620539
  C        14.2564356082        9.6569563325        9.4168605034
  C        13.7432530384       10.7590721404        8.6629513863
  C        49.1265806949       21.2332825583       13.8747054803
  C        48.5497712827       22.4011692255       13.1476036709
  C        49.2998789767       23.0685995182       12.1667348924
  C        48.7329396863       24.1076933207       11.4334918841
  C        47.4023335167       24.5091867755       11.6619777438
  C        46.6712426083       23.8601196586       12.6752583284
  C        47.2337078632       22.8152519539       13.4046584792
  C        46.7721560264       25.5868975120       10.8646766717
  C        46.7612949992       25.5573677739        9.4429131695
  C        47.2612450324       24.4422743079        8.6994347878
  C        14.8604459902        8.5706650108        8.7035832492
  C        14.8917235559        8.5970004367       11.5151875161
  C        49.1131084285       21.2034242964        2.1504906063
  C        48.5277158224       22.3647389499        2.8776723642
  C        49.2670588271       23.0256468710        3.8703766322
  C        48.6907423675       24.0602361914        4.6017912143
  C        47.3601943041       24.4567319520        4.3638297732
  C        46.6396459153       23.8116026500        3.3405523356
  C        47.2131741870       22.7756456703        2.6088128005
  C        46.7218129784       25.5317845985        5.1548045838
  C        46.7336004778       25.5282118574        6.5765043428
  C        47.2490297662       24.4289941327        7.3328826626
  C        40.6224572550       17.0954391146        7.3155892960
  C        40.6327035400       17.1055774222        4.5061898653
  C        11.8828749069       14.0865471347        2.2905633029
  C        12.4722604196       12.9107190298        2.9948440456
  C        11.7147774762       12.1775817790        3.9210144850
  C        12.2813788722       11.0951345637        4.5894508224
  C        13.6201649860       10.7213523025        4.3575659849
  C        14.3580845489       11.4368332214        3.3966591708
  C        13.7926458820       12.5179903203        2.7239456340
  C        14.2537912943        9.6246229441        5.1279929236
  C        14.2526415402        9.6446545128        6.5498354514
  C        13.7426932446       10.7535704109        7.2969061279
  C        22.5103293001        3.2444631283       13.7465144485
  C        23.2212671658        4.3498435084       13.0430846565
  C        24.2184570943        4.0698028917       12.0971726354
  C        24.8431113797        5.1091152996       11.4125785869
  C        24.4859562223        6.4506882926       11.6534841616
  C        23.5160604833        6.7222992924       12.6357153938
  C        22.8871204167        5.6848293979       13.3190140125
  C        25.0919500135        7.5571603181       10.8779701494
  C        25.0726542342        7.5479101907        9.4561671088
  C        24.3766562030        6.5464668137        8.7071300221
  C        38.3021748206       31.9294241393       13.8442534039
  C        37.5713918081       30.8403755553       13.1353904282
  C        36.6080179364       31.1451420725       12.1616043468
  C        35.9890444344       30.1256700858       11.4437999503
  C        36.3190916334       28.7763808814       11.6777294061
  C        37.2529411622       28.4789342094       12.6880644933
  C        37.8756037149       29.4971452092       13.4052226902
  C        35.7158997741       27.6858524486       10.8794863719
  C        35.7434399166       27.7044169333        9.4580483287
  C        36.4457905087       28.7097693018        8.7214416072
  C        25.6979882905        8.6178921282        8.7382550898
  C        25.6831260023        8.6343781816       11.5505654280
  C        38.3287236221       31.9629360340        2.1609433913
  C        37.6058534008       30.8912426509        2.9026688740
  C        36.6745672205       31.2024191046        3.9051544185
  C        36.0622126484       30.1855709585        4.6347625964
  C        36.3673533790       28.8326655372        4.3852629441
  C        37.2765675350       28.5314099671        3.3528273789
  C        37.8908264924       29.5447429937        2.6242529127
  C        35.7574076062       27.7350184909        5.1691799766
  C        35.7645387602       27.7297140058        6.5910685756
  C        36.4554982136       28.7220857162        7.3549315237
  C        46.1356265526       26.6208754556        7.2866223835
  C        46.0877471644       26.5800541185        4.4787243791
  C        22.4632095034        3.2557026032        2.2613481095
  C        23.1631827893        4.3638215062        2.9802891514
  C        24.1710862781        4.0763650203        3.9145181003
  C        24.8043701098        5.1055157727        4.6073495090
  C        24.4498674679        6.4518123216        4.3888294760
  C        23.4654645921        6.7326674485        3.4224895113
  C        22.8278525001        5.7037703659        2.7298151062
  C        25.0818989421        7.5488740302        5.1642105415
  C        25.0685146348        7.5429348213        6.5869436762
  C        24.3727226882        6.5453253463        7.3404476472
  C        26.6180585365       17.8611782949       13.7786513717
  C        25.3101602149       17.9042279087       13.0541886944
  C        25.0409502079       18.9086970322       12.1110855708
  C        23.8287392850       18.9253813658       11.4237968652
  C        22.8468310176       17.9418516962       11.6597605200
  C        23.1105812362       16.9605196234       12.6338913742
  C        24.3258160977       16.9377627362       13.3173046753
  C        21.5738522983       17.9272958015       10.8947973180
  C        21.5751869178       17.9097406435        9.4723541289
  C        22.7816568888       17.7889217843        8.7130354071
  C        34.4435286841       17.1933706057       13.9167163813
  C        35.7381408547       17.1413498742       13.1754813203
  C        35.9424220013       16.1705521926       12.1824976217
  C        37.1207559890       16.1583241984       11.4416947168
  C        38.1279546121       17.1148585136       11.6748714930
  C        37.9273320728       18.0651836431       12.6941309767
  C        36.7454758965       18.0835767112       13.4314782787
  C        39.3799038259       17.1224499238       10.8843507854
  C        39.3715243613       17.1289451055        9.4623985862
  C        38.1626052289       17.2506852515        8.7074714352
  C        20.3293607777       17.9288329269        8.7625311356
  C        20.3488338234       17.9288796432       11.5761843878
  C        34.4458150385       17.2373842492        2.1920083077
  C        35.7472323030       17.1372215956        2.9127066547
  C        35.9439778578       16.1688452812        3.9081933730
  C        37.1334630292       16.1391889801        4.6317967542
  C        38.1537362697       17.0775624678        4.3807577680
  C        37.9622760671       18.0188185383        3.3517931656
  C        36.7725569404       18.0532131918        2.6308890300
  C        39.4025317232       17.0950680396        5.1740828900
  C        39.3829813987       17.1162560505        6.5955753059
  C        38.1680910575       17.2437506279        7.3407433393
  C        35.1351145923       26.6495130871        7.2942228576
  C        35.1696319513       26.6637210827        4.4852255089
  C        26.5730055226       17.8279045962        2.3307212304
  C        25.2581175341       17.8718037156        3.0383998553
  C        24.9955397611       18.8749039623        3.9836197360
  C        23.7775748910       18.9008132234        4.6573102650
  C        22.7931394274       17.9231841844        4.4097238535
  C        23.0504707789       16.9446490292        3.4325592598
  C        24.2690804380       16.9169246670        2.7569151724
  C        21.5291747644       17.9053155775        5.1820889712
  C        21.5522168598       17.8961581882        6.6036428491
  C        22.7701579681       17.7815864481        7.3467643674
  C        14.0466269621       17.8289532551        2.2938438211
  C        15.3514156604       17.8863930103        3.0189748471
  C        15.6089887569       18.8910370422        3.9648034332
  C        16.8180787435       18.9121347328        4.6576239402
  C        17.8039585139       17.9315297124        4.4265637254
  C        17.5512339362       16.9511082698        3.4485157180
  C        16.3415782345       16.9254466788        2.7573264195
  C        19.0728725773       17.9142924050        5.1960837655
  C        19.0707404390       17.9109612159        6.6185564183
  C        17.8631070368       17.8129227094        7.3789369683
  C        46.8026883580       17.2161942050        2.1621131460
  C        45.5097118767       17.1463825680        2.9026179556
  C        45.3050361242       16.1635941434        3.8836709915
  C        44.1213660377       16.1367789341        4.6164524342
  C        43.1113951187       17.0924774243        4.3909242827
  C        43.3126140687       18.0537533197        3.3817885566
  C        44.4971782076       18.0845886991        2.6497542111
  C        41.8586385870       17.0984799107        5.1814310647
  C        41.8676167708       17.1043230063        6.6035630346
  C        43.0783349354       17.2022845917        7.3589615650
  C        20.3170875457       17.9211026563        7.3276851849
  C        20.2974976833       17.8944304583        4.5147017244
  C        46.7856025801       17.2322611855       13.8817080065
  C        45.4847281591       17.1283666729       13.1619662574
  C        45.2678539332       16.1301804197       12.1998325764
  C        44.0810835850       16.1032328828       11.4715152615
  C        43.0814454758       17.0717545689       11.6874712867
  C        43.2894715098       18.0407159983       12.6869546514
  C        44.4771052546       18.0738313259       13.4107789618
  C        41.8342129414       17.0918005874       10.8919785541
  C        41.8554193974       17.0994104086        9.4707536453
  C        43.0726932971       17.1970638959        8.7257381936
  C        46.1533621354       26.6372936507        8.7211676006
  C        46.1621909668       26.6559963259       11.5308064775
  C        14.0446674582       17.8310988175       13.7035724981
  C        15.3651709242       17.9038693768       13.0122289039
  C        15.6394446105       18.9196039045       12.0843850128
  C        16.8682551326       18.9555875471       11.4292652740
  C        17.8498374327       17.9748366288       11.6763753807
  C        17.5822995133       16.9877752734       12.6422346587
  C        16.3556002517       16.9513815009       13.3009397180
  C        19.1170765365       17.9492404368       10.9079765621
  C        19.0938273068       17.9277225314        9.4865149999
  C        17.8743634276       17.8201957066        8.7449463634
  C        28.7950536556       14.1165920130        2.4030881608
  C        28.1948279669       12.9376326354        3.0915800841
  C        28.9196236312       12.2048238782        4.0427527539
  C        28.3285045286       11.1209036650        4.6876609397
  C        26.9978953409       10.7480535806        4.4084229384
  C        26.2954960287       11.4623934440        3.4211699457
  C        26.8849542757       12.5442484834        2.7726189839
  C        26.3322031720        9.6633193227        5.1661516578
  C        26.3126413346        9.6900012536        6.5871184406
  C        26.8098755951       10.8044674358        7.3345741135
  C        32.1803699355       21.2431350626        2.1481383811
  C        32.7742179211       22.4109821549        2.8646929808
  C        32.0231850877       23.0915691478        3.8353282568
  C        32.5923729694       24.1311657512        4.5641933418
  C        33.9281155668       24.5180022302        4.3427245201
  C        34.6616655339       23.8566057452        3.3399585590
  C        34.0948161476       22.8111925686        2.6132162078
  C        34.5548360299       25.5937834909        5.1439848975
  C        34.5452066724       25.5652329779        6.5655434783
  C        34.0383508100       24.4485402865        7.3024773811
  C        25.7008994128        8.6116610085        7.3036567943
  C        25.6997422230        8.6111841571        4.4904565921
  C        32.1166804257       21.1986681235       13.8467269349
  C        32.7031714606       22.3586732787       13.1111788776
  C        31.9646543854       23.0263156700       12.1220245333
  C        32.5401465998       24.0643308133       11.3932681307
  C        33.8692013503       24.4642623252       11.6350688867
  C        34.5896140557       23.8120339007       12.6537226991
  C        34.0178125734       22.7695776575       13.3788094433
  C        34.5058753965       25.5495844643       10.8538497779
  C        34.5193553718       25.5430046026        9.4319395817
  C        34.0253451564       24.4383201930        8.6690658690
  C        40.6160861921       17.0976026012        8.7503152198
  C        40.6051922140       17.1205958716       11.5603959253
  C        28.7166020433       14.0931024911       13.7819860155
  C        28.1075364731       12.9428619443       13.0502808651
  C        28.8485997107       12.2324581695       12.0934673888
  C        28.2704419318       11.1694811096       11.4040493394
  C        26.9347550721       10.7904361660       11.6459293882
  C        26.2111929792       11.4864550349       12.6322984812
  C        26.7883746394       12.5493209345       13.3246602092
  C        26.2968535264        9.6966285734       10.8747428735
  C        26.2957762354        9.7071965282        9.4530266477
  C        26.7998942369       10.8138123109        8.7001291205
  C        18.1353984652        3.1810288999        2.3222618769
  C        17.4060693715        4.2782785685        3.0208402564
  C        16.3906810187        3.9998859566        3.9487127208
  C        15.7429347635        5.0398632537        4.6121915970
  C        16.0945716238        6.3836110646        4.3722305767
  C        17.0835440501        6.6531445129        3.4080445986
  C        17.7326581487        5.6158109160        2.7430049583
  C        15.4703208059        7.4913325770        5.1352773086
  C        15.4856644284        7.4906688452        6.5569884312
  C        16.1873563220        6.4971478150        7.3101592049
  C        42.9459387746       31.8594551962        2.0779841471
  C        43.6462671552       30.7718232642        2.8219055632
  C        44.5918750272       31.0931267623        3.8079220008
  C        45.1975554967       30.0875587881        4.5555602193
  C        44.8710071271       28.7345004613        4.3407925898
  C        43.9450397826       28.4201843685        3.3277010247
  C        43.3362523591       29.4253435603        2.5796644129
  C        45.4886036826       27.6552187517        5.1439908837
  C        45.4929022027       27.6809709600        6.5656785738
  C        44.8058180923       28.6890230736        7.3122963506
  C        14.8567276088        8.5631708396        7.2693602240
  C        14.8749736748        8.5630781197        4.4566976570
  C        42.9464850100       31.9615448351       13.8038450162
  C        43.6916627301       30.8854689623       13.0903736498
  C        44.6562913261       31.1913677141       12.1180910584
  C        45.2777918882       30.1717637253       11.4003937897
  C        44.9539766981       28.8214399447       11.6380015053
  C        44.0204547346       28.5237895021       12.6487548740
  C        43.3922158337       29.5405643212       13.3609289248
  C        45.5629922425       27.7240464831       10.8527508029
  C        45.5334128799       27.7174635933        9.4314513081
  C        44.8270775123       28.7076706557        8.6784809432
  C        35.1232804786       26.6374529367        8.7289344561
  C        35.1154682355       26.6073925565       11.5388707537
  C        18.1485966072        3.2469383263       13.7015423554
  C        17.4300207443        4.3438029249       12.9922480172
  C        16.4149938608        4.0525459875       12.0684804379
  C        15.7666913791        5.0831710693       11.3930726540
  C        16.1211502678        6.4284216529       11.6160254272
  C        17.1123169779        6.7118036084       12.5735059043
  C        17.7599703445        5.6828823416       13.2532743202
  C        15.4906674624        7.5241298591       10.8435994390
  C        15.4967117342        7.5075879472        9.4224672398
  C        16.1935575701        6.5059447636        8.6757639729
  H        10.6724238468       12.4659927485       11.8993095896
  H        11.6945956195       10.5510920732       10.6575121960
  H        15.3915146902       11.1684320926       12.7673320145
  H        14.3510472847       13.0713169707       14.0124960484
  H        13.3761001364       11.6311364774        9.1962633716
  H        50.3226346492       22.7486538650       11.9821138867
  H        49.3194422527       24.6230501677       10.6759906167
  H        45.6416384960       24.1606490378       12.8582044146
  H        46.6625780995       22.2898362175       14.1665469616
  H        47.6296258260       23.5758369928        9.2411315085
  H        14.8718825297        8.5881787716       12.6034912129
  H        50.2871975078       22.7029897758        4.0651008489
  H        49.2691568627       24.5758480846        5.3651716706
  H        45.6100886523       24.1085021470        3.1517759427
  H        46.6521967173       22.2532351704        1.8375291812
  H        47.6077260977       23.5518325961        6.8019981005
  H        40.6359625079       17.0669072464        3.4185334408
  H        48.6870177492       14.0949432469       15.7949215737
  H        10.6813074045       12.4666763727        4.0984131508
  H        11.6895853421       10.5247597457        5.3021626728
  H        15.3934891559       11.1588890638        3.2106619901
  H        14.3649059628       13.0873009095        1.9953041075
  H        13.3757630615       11.6221230254        6.7582395788
  H        47.9300611993       14.2185793791        1.7158036242
  H        47.7799376116       14.3735025019       14.4901004297
  H        49.0825468258       18.5518213623        2.8721719247
  H        10.4157431191       14.1343771191        0.0038284732
  H        24.4820232452        3.0313555774       11.9091788813
  H        25.6173421156        4.8916246806       10.6799931459
  H        23.2325760738        7.7550250785       12.8278871353
  H        22.1165362968        5.8850890654       14.0594469140
  H        23.8140858567        5.7890247564        9.2451427103
  H        36.3693157408       32.1884908882       11.9694165523
  H        35.2415695748       30.3653041701       10.6907241870
  H        37.5153044410       27.4397538619       12.8754749334
  H        38.6221011241       29.2755440856       14.1642478928
  H        37.0093362406       29.4603990235        9.2678539232
  H        25.7119840222        8.6189410531       12.6385974999
  H        36.4516229244       32.2471187436        4.1097355441
  H        35.3342753189       30.4317321012        5.4046403414
  H        37.5237151237       27.4906637154        3.1541219330
  H        38.6152093031       29.3177097260        1.8458865093
  H        37.0277076500       29.4817140396        6.8301893823
  H        46.1089578468       26.5872999888        3.3906841830
  H        44.6681812563       35.1161080354       15.8088395218
  H        24.4484919839        3.0377173448        4.0797185939
  H        25.5887901121        4.8752689721        5.3251926761
  H        23.1800080744        7.7675162914        3.2446935430
  H        22.0519495996        5.9180407930        1.9984456112
  H        23.8065919073        5.7875104392        6.8066547998
  H        44.9534181703       34.3899097428        1.6999330264
  H        44.9013673416       34.2066824408       14.4854674373
  H        40.6658029578       33.2089148232        2.8581195650
  H        23.1505753365        1.9576959497        0.0095640342
  H        25.7918930887       19.6750400336       11.9335082199
  H        23.6260700877       19.7102425436       10.6981393985
  H        22.3639491334       16.1925524119       12.8258167478
  H        24.5399867938       16.1665444516       14.0536048277
  H        23.7219659737       17.6707639951        9.2437365938
  H        35.1588753816       15.4387544145       12.0007707599
  H        37.2775509716       15.3990974705       10.6785924296
  H        38.6969803634       18.8118814268       12.8784795025
  H        36.5735474339       18.8327486636       14.2009368320
  H        37.2250443305       17.3826071131        9.2401383936
  H        20.3545979379       17.9664109723       12.6641380869
  H        35.1455117320       15.4599234230        4.1146665766
  H        37.2844706732       15.3852299225        5.4011812612
  H        38.7429013353       18.7500578274        3.1525970545
  H        36.6038868384       18.7992462801        1.8581091998
  H        37.2342249936       17.3700423901        6.8002835645
  H        35.1443310877       26.6890391366        3.3974718112
  H        28.5046981461       21.0926121506       15.8925239933
  H        25.7587955408       19.6267610736        4.1713422392
  H        23.5731464992       19.6835412744        5.3846614984
  H        22.2986533043       16.1830812517        3.2356377198
  H        24.4837098768       16.1502400624        2.0162300437
  H        23.7017920226       17.6577178151        6.8028670102
  H        29.0005397395       21.7264720065        1.7512045734
  H        29.1799091233       21.7342892040       14.5581208200
  H        32.0901769551       18.5800574335        2.9894893719
  H        27.4005883528       19.0780219078        0.0900382562
  H        14.8510252353       19.6508302492        4.1418915569
  H        17.0138451165       19.6974088488        5.3846500203
  H        18.3018451416       16.1859575940        3.2611895437
  H        16.1349404469       16.1551642068        2.0180996097
  H        16.9208627511       17.6987923669        6.8508749317
  H        46.0910621522       15.4345334398        4.0658659087
  H        43.9647122953       15.3674941003        5.3694399394
  H        42.5410387038       18.7996046414        3.2022643660
  H        44.6679062018       18.8417769575        1.8880205425
  H        44.0188135518       17.3132401643        6.8268817758
  H        20.2921567102       17.9243513989        3.4265666458
  H        46.0446265748       15.3892427393       12.0250296108
  H        43.9154632213       15.3277737604       10.7267923405
  H        42.5229131427       18.7931347372       12.8602077840
  H        44.6581638054       18.8404706004       14.1601415302
  H        44.0089422945       17.3029899972        9.2660853920
  H        46.1988713445       26.6824382430       12.6182593618
  H        52.7410427306       21.0625744432        0.1997478506
  H        14.8798479011       19.6745023338       11.8935610876
  H        17.0805721548       19.7462332630       10.7128139607
  H        18.3318022277       16.2242935002       12.8403178206
  H        16.1332469771       16.1767644385       14.0308013575
  H        16.9405407815       17.7116365098        9.2883257118
  H        52.3219892804       21.6731561272       14.2893670771
  H        52.0130210578       21.7019164517        1.5007369879
  H        49.0671397638       18.6078030877       13.1991328667
  H        13.2473153995       19.0164586051       15.9721465081
  H        29.9434186580       12.4985211438        4.2631597996
  H        28.8928145258       10.5506748399        5.4223925118
  H        25.2673698149       11.1850214416        3.1977199174
  H        26.3403809568       13.1158029431        2.0250808692
  H        27.1743073692       11.6735643509        6.7953638598
  H        30.9971471781       22.7790555759        4.0134057439
  H        32.0056764075       24.6580862181        5.3134986782
  H        35.6956352755       24.1462628710        3.1640040187
  H        34.6667013940       22.2740063661        1.8600630099
  H        33.6856379738       23.5789688955        6.7551938109
  H        25.7330648957        8.5920804200        3.4025237160
  H        30.9399863333       22.7131504073       11.9350446000
  H        31.9611131549       24.5839933029       10.6329379341
  H        35.6181200122       24.1103017531       12.8463656987
  H        34.5791468724       22.2438130038       14.1477163022
  H        33.6635528395       23.5600939808        9.1961387995
  H        40.6010536997       17.0875477060       12.6482219198
  H        32.5149975281       14.1494054249        0.2675395616
  H        29.8814662255       12.5211538370       11.9122225828
  H        28.8527271644       10.6140349977       10.6719994790
  H        25.1780374675       11.2055367335       12.8263584181
  H        26.2272405589       13.1016947046       14.0747988718
  H        27.1550482131       11.6902442876        9.2341601821
  H        33.2902433296       14.1805547531       14.4250393147
  H        33.4045374705       14.4014561894        1.6176869823
  H        32.1752242751       18.5511251198       13.2082543740
  H        30.2235319071       14.1886655139        0.0881942557
  H        16.1188269447        2.9633643552        4.1353172224
  H        14.9537088395        4.8204549392        5.3280911424
  H        17.3656582140        7.6860506666        3.2146306541
  H        18.5143441144        5.8184678833        2.0147832717
  H        16.7539434005        5.7398212702        6.7766733262
  H        44.8282695285       32.1401876067        3.9820628121
  H        45.9374897361       30.3412436851        5.3114581639
  H        43.6821606031       27.3781432610        3.1576921243
  H        42.5995360043       29.1899946068        1.8151013262
  H        44.2303825792       29.4367251707        6.7739889369
  H        14.8510856542        8.5462485530        3.3684801073
  H        44.8998815549       32.2340360282       11.9266455676
  H        46.0247082001       30.4129449718       10.6471552514
  H        43.7634238925       27.4840719223       12.8403006556
  H        42.6457166558       29.3177309487       14.1193627452
  H        44.2684932138       29.4705166378        9.2130411593
  H        35.0760077378       26.6168223187       12.6264974816
  H        36.6050920262       35.1341126335        0.1857434172
  H        16.1440828433        3.0129531368       11.8985689610
  H        14.9745039759        4.8563262018       10.6828338379
  H        17.3956165800        7.7472907959       12.7506107851
  H        18.5426744284        5.8933080916       13.9782299550
  H        16.7650372454        5.7557396907        9.2142027959
  H        36.2787011078       34.4822793408       14.2682054484
  H        36.3810460237       34.2091411907        1.5047117453
  H        40.5800581861       33.2023194233       13.1485363272
  H        17.4708143693        1.9473353560       15.9690094636
  H        29.0944433382       19.4407218986        4.4770382252
  H        28.9102738423       19.0931512031       11.7183400158
  H        30.5831970446       15.5544921780       11.9440459296
  H        31.0602187507       15.5464872505        4.4610003254
  H        27.9678340249       17.9644703043        6.6357914668
  H        28.8586166196       15.6339144807        6.4680187201
  H        30.4900915696       20.1076628619        9.7717780691
  H        31.9660367528       15.9400566595        9.7589070961
  H        18.8538477588        0.8691933996        4.3404694828
  H        40.5278668511       35.2290702075       11.9469854425
  H        42.3238953737       34.4186572107       11.5856405692
  H        22.0879668889        0.6920780997        4.3567549628
  H        11.5971022749       18.7129781662        4.3874173493
  H        52.2648420089       18.4310744438       11.6724351071
  H        49.2552291863       16.4771511588       11.5795552511
  H        10.1507188246       15.7982010629        4.2978016554
  H        50.8499320621       17.6923473621       11.9492390830
  H        10.0462818422       17.3945442670        4.0571273921
  H        20.2150746861        0.0023576885        4.0471081742
  H        39.1835670919       36.1243985913       11.6813570277
 Ni        30.7368149985       17.7450730697       10.9076739446
 Ni        30.6891772924       16.4960067594        7.7455047206
 Ni        29.8803169523       18.7289842287        7.8272017141
 Ni        30.0580083346       17.5016707744        5.2458569064
  O        10.6499074446       14.3651044088       13.4807091686
  O        12.6131664105       14.6575345469       14.5787874406
  O        49.1479123661       16.8459961520       15.9847084611
  O        50.3501063345       20.9360895118       13.6431146503
  O        48.3484829243       20.5932854935       14.6609159658
  O        11.0514674325       17.0539521710       14.4955406118
  O        50.3209795298       20.8816788095        2.4119643292
  O        48.3467202748       20.5867643822        1.3322387416
  O        49.5435921081       18.2484484814        2.0734156476
  O        12.3589177523       18.6246053663        0.0048556253
  O        48.6932021501       14.1485987031       14.7461978839
  O         8.2098615949       14.2103917929        1.3276446798
  O        10.7353505632       14.5067133932        2.6694563829
  O        12.5718260551       14.5828175377        1.3336118854
  O        22.8447259833        2.0435678988       13.4820165641
  O        21.6054004355        3.5923985446       14.5846021107
  O        42.0582001506       34.1373659723       15.9738550913
  O        37.9816167224       33.1377923545       13.5675682489
  O        39.2180921824       31.5760921841       14.6614821679
  O        20.3084214074        1.0396665999       14.4969748767
  O        38.0251043635       33.1867981728        2.4199008815
  O        39.2191815539       31.5839170850        1.3315162676
  O        40.6523669635       33.7693997386        2.0653557557
  O        18.2554835138        1.3761515533        0.0018831205
  O        44.6222294426       35.1005593511       14.7536255953
  O        24.2054324873       -0.0000288541        1.3259051826
  O        22.7531909180        2.0575358766        2.5888623393
  O        21.6248701321        3.5964472360        1.3484504319
  O        27.4930628440       18.7540496464       13.4915807748
  O        26.7635348839       16.9350250842       14.6484117533
  O        30.6709991864       19.4101711205        0.0719620271
  O        33.5879950402       16.2786194143       13.6617435422
  O        34.2764732294       18.1693705017       14.7301755747
  O        29.5739554043       17.0621735151       14.5832225676
  O        33.5613021224       16.3406629443        2.4213274624
  O        34.3033108393       18.2416423938        1.4140844466
  O        31.6523942214       18.3169004986        2.1631007933
  O        30.3221682549       15.1549106809        0.0906278255
  O        28.5557220519       21.0381948464       14.8341624565
  O        28.5133803753       20.9585446802        1.4071686096
  O        27.4583389444       18.6796633048        2.6648310846
  O        26.6940721418       16.9299732314        1.4182302713
  O        13.1488952134       18.6930067539        2.5926046764
  O        13.9195026338       16.9162517646        1.4102219683
  O        50.5958360013       19.3501800808        0.0257179404
  O        47.6832226283       16.3269384846        2.4222971119
  O        46.9507268662       18.1755318088        1.3304806218
  O        11.0695912803       17.0156211591        1.4948310344
  O        47.6761503189       16.3357611164       13.6478873987
  O        46.9266868636       18.2357399920       14.6589871352
  O        49.5684854100       18.3177505213       13.9772330505
  O        10.3185597309       15.1002401283        0.0021946707
  O        52.6707390433       21.0278916030        1.2469308603
  O        12.1468075457       20.8911954550       14.6681018030
  O        13.1079782199       18.6136667410       13.3205663943
  O        13.9569368317       16.9868448930       14.6605133856
  O        29.9647798919       14.5021727648        2.7470576331
  O        28.0812804933       14.6563553367        1.4924470554
  O        32.1368350307       16.8621949516        0.0925427243
  O        30.9663906307       20.9551920790        2.4125609623
  O        32.9480720211       20.6018612429        1.3447961202
  O        29.5661172032       17.0809626731        1.5800860785
  O        30.9036645296       20.8816082722       13.5843794079
  O        32.8804650708       20.5848099448       14.6621765741
  O        31.6846674638       18.2504851776       13.9898015752
  O        28.2859038649       18.6795056437        0.0804282615
  O        32.4897531811       14.2139498419        1.3384779038
  O        32.4027768478       14.2103664180       14.8190575135
  O        29.8710721105       14.4986375538       13.4123953043
  O        28.0396682290       14.5860489625       14.7471264156
  O        17.8892068923        1.9667156486        2.6679201219
  O        18.9562921660        3.5271669598        1.4130963510
  O        39.1687151320       34.1388784509        0.0022787380
  O        43.2802295459       33.0589622475        2.3368018420
  O        42.0345285620       31.5064627574        1.2467286641
  O        20.3177872598        1.0367766512        1.4852887897
  O        43.2760684572       33.1826104983       13.5697996012
  O        42.0052927350       31.5841335408       14.5778870221
  O        40.5790121513       33.7749540471       13.9306970643
  O        22.3673064320        1.3846855078        0.0030518488
  O        36.6727050337       35.0998409961        1.2383599131
  O        16.4455322564        0.0642687236       14.6631706890
  O        17.9364825480        2.0433854023       13.3212505714
  O        18.9190644233        3.5931118415       14.6608756275
  O        29.7408836937       18.8272786153       12.1510827764
  O        29.8175792015       18.9821667261        4.0060710837
  O        31.2239219991       16.2634926147       12.1508512716
  O        31.2979288264       16.4110764742        4.0731881793
  O        31.4691748915       16.7039865908        9.4145730673
  O        29.7911316626       15.8205608322        6.2642006809
  O        30.4595970948       19.1787309750        9.4913633089
  O        28.7180556051       18.5422031737        6.4134356943
  O        39.4567518356       35.2437752357       11.9968637976
  O        19.1417297289        0.0047729536        3.9956308768
  O        41.9696356671       35.1726928568       12.0821238955
  O        21.6914319202       -0.0692424488        3.9010696983
  O        51.3649889110       18.6143013077       12.0003654057
  O        10.7512123038       18.7472298922        3.9100429008
  O        50.0797726165       16.4128169940       12.0866510595
  O         9.5248068545       16.4830230921        3.9963540460
 Zr         9.2963623885       16.0528025558       14.1772821687
 Zr        49.8359174250       16.0068402383        1.7517120971
 Zr        22.0731722172        0.0296827888       14.1840008820
 Zr        42.4609060265       35.1532255729        1.8060724875
 Zr        29.6081675181       19.0776641329       14.2999987852
 Zr        29.5827549174       19.1860249865        1.8625854882
 Zr        11.0376227032       19.0520556690        1.8328062883
 Zr        11.0433741885       19.1548730226       14.2462255970
 Zr        31.3460926914       16.1154070073        1.9056720781
 Zr        31.4059258978       16.0151056785       14.2958582061
 Zr        18.6011422140       -0.0013428130        1.7684816608
 Zr        18.5064238798       -0.0078564097       14.2086546221
 Zr        12.3014754635       16.3236540785       15.9852692890
 Zr        48.6155339797       18.8328841579        0.0156185524
 Zr        20.3151763314        2.4732829737       15.9856846330
 Zr        40.6434440708       32.6868375909       15.9731134984
 Zr        28.3479835855       16.3448343903        0.0902549498
 Zr        32.6375018951       18.8369605266        0.0646540650
  H        33.0599325074       17.0961877266        5.7749086972
  H        33.5280540946       17.3036502149        6.3054255334
