     586
 i =      173, E =     -4847.8074017823
  C        11.8580754440       14.0537950591       13.7366304971
  C        12.4556504843       12.8904576767       13.0182771293
  C        11.7045188577       12.1728505621       12.0752582139
  C        12.2807744294       11.1106091407       11.3827772985
  C        13.6207027329       10.7394145752       11.6118776520
  C        14.3531820634       11.4415212229       12.5869197998
  C        13.7803938198       12.5065475889       13.2784664271
  C        14.2604287982        9.6489109002       10.8384514015
  C        14.2566291395        9.6572377915        9.4167300724
  C        13.7438528675       10.7595153633        8.6627506241
  C        49.1263028620       21.2333305112       13.8747837964
  C        48.5495135450       22.4010891352       13.1474661155
  C        49.2997100345       23.0687630116       12.1668397794
  C        48.7327399932       24.1078187410       11.4335912229
  C        47.4019950691       24.5090211352       11.6618030541
  C        46.6707242781       23.8595468439       12.6746669455
  C        47.2331848345       22.8146226886       13.4040057968
  C        46.7719304373       25.5867982385       10.8645115928
  C        46.7613005404       25.5573643055        9.4427515765
  C        47.2610556154       24.4421368529        8.6993269022
  C        14.8606080573        8.5708755676        8.7035047151
  C        14.8906079845        8.5965640226       11.5150728344
  C        49.1129118138       21.2033516245        2.1503243053
  C        48.5276044390       22.3645730540        2.8777094354
  C        49.2669305145       23.0255104560        3.8703951992
  C        48.6905698639       24.0600661229        4.6017934869
  C        47.3600262400       24.4565457477        4.3637819747
  C        46.6393923081       23.8111773640        3.3407393766
  C        47.2129304630       22.7751652801        2.6090899611
  C        46.7217300032       25.5316567518        5.1547030995
  C        46.7336805147       25.5281820377        6.5763915844
  C        47.2488406802       24.4288279083        7.3327750447
  C        40.6181366599       17.0883161678        7.3210289370
  C        40.6339598347       17.1343358916        4.5077519694
  C        11.8825250446       14.0868122639        2.2904521668
  C        12.4716767667       12.9102525042        2.9943741351
  C        11.7145741958       12.1781770958        3.9216225860
  C        12.2809878235       11.0956617680        4.5901798513
  C        13.6192667942       10.7207584108        4.3573071988
  C        14.3566738333       11.4350398028        3.3951152066
  C        13.7914289918       12.5163092231        2.7223971771
  C        14.2530505832        9.6241886693        5.1278168226
  C        14.2526663652        9.6446866174        6.5496649804
  C        13.7432906323       10.7539112148        7.2966944409
  C        22.5087032263        3.2445433555       13.7479701428
  C        23.2167636074        4.3545278644       13.0470167177
  C        24.2146976306        4.0825195962       12.0997222055
  C        24.8330336011        5.1273399477       11.4176832140
  C        24.4691022147        6.4665786395       11.6628031079
  C        23.4989420016        6.7301072973       12.6468868853
  C        22.8762965371        5.6870226455       13.3272983485
  C        25.0655307756        7.5769940762       10.8865857520
  C        25.0452963331        7.5632339393        9.4628133789
  C        24.3500615874        6.5600289493        8.7188118198
  C        38.2981573834       31.9260981544       13.8461740965
  C        37.5613469393       30.8369724244       13.1471845927
  C        36.6089705957       31.1377998007       12.1601702898
  C        35.9886868931       30.1159714987       11.4478041256
  C        36.3009899948       28.7640512779       11.6986903697
  C        37.2201779063       28.4722293321       12.7256086324
  C        37.8463368841       29.4927508666       13.4362970869
  C        35.6986481120       27.6739117396       10.9009938352
  C        35.7168259528       27.7019824004        9.4727346930
  C        36.4294297550       28.6956127656        8.7408324719
  C        25.6678924470        8.6321628416        8.7406704565
  C        25.6496044668        8.6600026775       11.5544621540
  C        38.3273100673       31.9603054273        2.1626998996
  C        37.6060264860       30.8908370060        2.9033896102
  C        36.6953552304       31.2002474186        3.9267695618
  C        36.0882941152       30.1834529285        4.6594696115
  C        36.3712643626       28.8271598587        4.3933005937
  C        37.2576577420       28.5294524539        3.3378786306
  C        37.8695095900       29.5425668059        2.6079081841
  C        35.7614812479       27.7307871223        5.1750337967
  C        35.7494704349       27.7302630533        6.6031216907
  C        36.4444104406       28.7101321776        7.3699725871
  C        46.1357870325       26.6209141672        7.2864608049
  C        46.0876638132       26.5799156219        4.4786021228
  C        22.4582785434        3.2537143879        2.2608939574
  C        23.1493903476        4.3636699681        2.9837468122
  C        24.1496450229        4.0795413194        3.9267009549
  C        24.7733758849        5.1114375973        4.6231136015
  C        24.4166845936        6.4558145762        4.3971421120
  C        23.4394457319        6.7331937368        3.4226775437
  C        22.8106403467        5.7013714710        2.7275425549
  C        25.0425324298        7.5555719780        5.1697288549
  C        25.0341606863        7.5514406999        6.5939850561
  C        24.3425871307        6.5557617126        7.3505972334
  C        26.6220101060       17.8554925952       13.7801687965
  C        25.3170049066       17.9051442540       13.0607596955
  C        25.0656466756       18.8916810179       12.0916592980
  C        23.8547660050       18.9125136904       11.4037248458
  C        22.8520714736       17.9527753542       11.6615701372
  C        23.0989202351       16.9937812072       12.6636039658
  C        24.3128509481       16.9649900187       13.3475753487
  C        21.5811846141       17.9374166402       10.8975002140
  C        21.5810283613       17.9201470944        9.4730232233
  C        22.7835627076       17.7925726284        8.7113889252
  C        34.4390966882       17.2275383755       13.9184063367
  C        35.7191182894       17.1640419709       13.1787822687
  C        35.9059069739       16.2147081381       12.1566905358
  C        37.0835800627       16.1973772415       11.4185322466
  C        38.1214967428       17.1180972590       11.6824219958
  C        37.9395535937       18.0372259451       12.7379857249
  C        36.7561692050       18.0686004177       13.4677600845
  C        39.3691767265       17.1257201059       10.8958535639
  C        39.3631816326       17.1196528879        9.4685829474
  C        38.1612065014       17.2466381325        8.7115566604
  C        20.3338681195       17.9374313110        8.7646882163
  C        20.3554709007       17.9332176404       11.5794835950
  C        34.4497103245       17.2379198447        2.1955968287
  C        35.7460173534       17.1337467116        2.9069364206
  C        35.9426319873       16.1725636759        3.9142461428
  C        37.1285230155       16.1498084997        4.6406732381
  C        38.1584347984       17.0800414160        4.3797013665
  C        37.9700458817       18.0039868259        3.3314266233
  C        36.7806699835       18.0383511797        2.6127686410
  C        39.4016264574       17.1039169419        5.1723095478
  C        39.3796161391       17.1093392374        6.5982856748
  C        38.1688765166       17.2393915387        7.3414787698
  C        35.0999570527       26.6577207418        7.3033762810
  C        35.1844985050       26.6551788644        4.4903836765
  C        26.5639060066       17.8215412041        2.3326748414
  C        25.2536480671       17.8710621434        3.0346472008
  C        24.9929133512       18.8702405829        3.9861107634
  C        23.7761967053       18.8949572766        4.6594321619
  C        22.7870983108       17.9220741645        4.4061487840
  C        23.0411244992       16.9511218890        3.4192918070
  C        24.2593847744       16.9224565641        2.7451090311
  C        21.5265724123       17.9019107482        5.1798048693
  C        21.5533110832       17.8999176570        6.6029083485
  C        22.7705667890       17.7826639490        7.3437521935
  C        14.0455321796       17.8282457624        2.2939650375
  C        15.3498964658       17.8841671660        3.0200802992
  C        15.6045265974       18.8827024123        3.9732325670
  C        16.8127217224       18.9016188422        4.6671924210
  C        17.8017690677       17.9253602318        4.4297940784
  C        17.5516511152       16.9512356330        3.4443891853
  C        16.3424616532       16.9273093079        2.7526861566
  C        19.0705553910       17.9074756492        5.1976294610
  C        19.0714306489       17.9102012682        6.6221233052
  C        17.8668862857       17.8104406747        7.3838529628
  C        46.8013652671       17.2167399173        2.1633106315
  C        45.5100710965       17.1493949782        2.9028699973
  C        45.3106476273       16.1823872100        3.9015598199
  C        44.1284860693       16.1622274578        4.6359373373
  C        43.1098918133       17.1064530388        4.3944240721
  C        43.3062902621       18.0500727242        3.3663632151
  C        44.4902922360       18.0760917772        2.6341935593
  C        41.8583062542       17.1164341391        5.1830593860
  C        41.8652178356       17.1094763032        6.6103702403
  C        43.0696000903       17.2149260426        7.3665080182
  C        20.3193479089       17.9260447855        7.3293266684
  C        20.2936777255       17.8829075133        4.5149175351
  C        46.7831241034       17.2306770125       13.8831023545
  C        45.4813431725       17.1244820622       13.1705372954
  C        45.2701534932       16.1441105231       12.1877867744
  C        44.0824600688       16.1215806508       11.4621964280
  C        43.0706805780       17.0739086841       11.7010028797
  C        43.2724777606       18.0206384578       12.7244835539
  C        44.4622630144       18.0517408155       13.4438198933
  C        41.8256426982       17.1006290440       10.9059990600
  C        41.8486624781       17.1003277730        9.4792795250
  C        43.0614755480       17.2079558289        8.7370929794
  C        46.1534500490       26.6373283599        8.7209946324
  C        46.1617228214       26.6557812806       11.5306073860
  C        14.0454819169       17.8319850738       13.7044986806
  C        15.3681058429       17.9068981303       13.0155157434
  C        15.6418338519       18.9201691747       12.0846151647
  C        16.8713765241       18.9569495070       11.4308664994
  C        17.8561915672       17.9801394867       11.6824467436
  C        17.5892183992       16.9961970359       12.6520032736
  C        16.3613799576       16.9587052196       13.3088882867
  C        19.1231702309       17.9542316938       10.9138363667
  C        19.0987543564       17.9333385244        9.4902316900
  C        17.8802626837       17.8209613269        8.7512336035
  C        28.7986821253       14.0842390147        2.4001365593
  C        28.1884542047       12.9123582739        3.0789357091
  C        28.9009783522       12.1820875987        4.0435383491
  C        28.2965011982       11.1107457873        4.6935559365
  C        26.9661952029       10.7416949482        4.4032545869
  C        26.2792914556       11.4485257127        3.3987073061
  C        26.8793892893       12.5224879204        2.7486730627
  C        26.2921779258        9.6684371614        5.1635237304
  C        26.2764934626        9.6994433979        6.5855568774
  C        26.7677823565       10.8180102005        7.3273726472
  C        32.1763302368       21.2484737568        2.1537132704
  C        32.7613303352       22.4147705184        2.8593353740
  C        32.0157839765       23.0880497273        3.8429010882
  C        32.5843518604       24.1250326701        4.5716354788
  C        33.9160213891       24.5296687167        4.3395946800
  C        34.6387349534       23.8816356865        3.3167559330
  C        34.0752364774       22.8346612325        2.5925698973
  C        34.5432528572       25.5968137655        5.1432476147
  C        34.5084805854       25.5759213104        6.5699798941
  C        33.9940087911       24.4665662312        7.3041450240
  C        25.6679848578        8.6222760229        7.3062561987
  C        25.6543962145        8.6174596514        4.4920279253
  C        32.0861678549       21.2118427625       13.8723875662
  C        32.6475333846       22.3598021037       13.1353979393
  C        31.9202765269       23.0133413545       12.1199138720
  C        32.4998839267       24.0408247938       11.3841493520
  C        33.8199499763       24.4753662418       11.6476702338
  C        34.5189548695       23.8491356755       12.7036347040
  C        33.9531859758       22.8047748748       13.4228094831
  C        34.4628380655       25.5487949447       10.8700593163
  C        34.4649722472       25.5545594541        9.4414465597
  C        33.9727461181       24.4581570096        8.6748095352
  C        40.6092280973       17.0884942036        8.7573543080
  C        40.5965780296       17.1401411060       11.5707476686
  C        28.7060094747       14.0988370956       13.7781154926
  C        28.0909225155       12.9658031006       13.0374540701
  C        28.8235099738       12.2557219799       12.0702053621
  C        28.2385272986       11.1987490837       11.3793252054
  C        26.9049882469       10.8134643141       11.6356256455
  C        26.1929518701       11.5061559169       12.6342236066
  C        26.7737111199       12.5688420413       13.3216034727
  C        26.2643749063        9.7193928173       10.8735813037
  C        26.2642627053        9.7248942265        9.4506399300
  C        26.7589121071       10.8310878405        8.6939694715
  C        18.1350979647        3.1801656665        2.3221715966
  C        17.4053593780        4.2776646384        3.0207502637
  C        16.3910830017        3.9991382304        3.9497052137
  C        15.7432444856        5.0390338468        4.6133214931
  C        16.0935147579        6.3828962537        4.3721708614
  C        17.0812428193        6.6525174478        3.4067404164
  C        17.7304194857        5.6152413432        2.7416478340
  C        15.4695088697        7.4907328314        5.1352336428
  C        15.4856329333        7.4906377498        6.5569429009
  C        16.1876360024        6.4973605349        7.3101611008
  C        42.9456986578       31.8592226039        2.0778662306
  C        43.6461017624       30.7717145260        2.8219621341
  C        44.5921250347       31.0929660509        3.8075716077
  C        45.1977784763       30.0873889497        4.5552028136
  C        44.8708554269       28.7343819128        4.3407153658
  C        43.9443701786       28.4201267104        3.3281128851
  C        43.3354766825       29.4253110678        2.5801887883
  C        45.4886127493       27.6551442230        5.1438323058
  C        45.4929549578       27.6809401721        6.5655122704
  C        44.8055802685       28.6888446241        7.3120749556
  C        14.8568632216        8.5632937785        7.2692609049
  C        14.8735715869        8.5621600236        4.4566512860
  C        42.9461090017       31.9610769779       13.8039708078
  C        43.6912166733       30.8851097015       13.0902150307
  C        44.6561481272       31.1910291157       12.1182657100
  C        45.2775906679       30.1714517245       11.4005003814
  C        44.9533219725       28.8211677420       11.6376758687
  C        44.0192116590       28.5234992164       12.6478444312
  C        43.3909263266       29.5402646411       13.3600007605
  C        45.5626397748       27.7238753329       10.8525308967
  C        45.5332784645       27.7173939222        9.4312387284
  C        44.8267560764       28.7074732333        8.6782600053
  C        35.0803147148       26.6453849137        8.7402649340
  C        35.1032140724       26.5925409958       11.5549383511
  C        18.1482001808        3.2463117494       13.7016798963
  C        17.4291470543        4.3434599315       12.9925161672
  C        16.4152360458        4.0521044572       12.0676438087
  C        15.7668915316        5.0827037725       11.3921391545
  C        16.1201584466        6.4280741588       11.6161327157
  C        17.1100408514        6.7114874632       12.5749341924
  C        17.7577195374        5.6825874254       13.2547368437
  C        15.4900237645        7.5238853988       10.8435802693
  C        15.4967545238        7.5077323790        9.4224335680
  C        16.1938610536        6.5062351434        8.6757659397
  H        10.6728894305       12.4682203743       11.8972700780
  H        11.6948035394       10.5532111276       10.6551481865
  H        15.3896069608       11.1655091521       12.7699376045
  H        14.3491085891       13.0687745695       14.0152478712
  H        13.3768346494       11.6316498242        9.1960506617
  H        50.3225034783       22.7488475987       11.9824056988
  H        49.3191275244       24.6232315756       10.6760520870
  H        45.6408828234       24.1595444559       12.8571380123
  H        46.6617771132       22.2885362931       14.1652295728
  H        47.6289113099       23.5754874157        9.2410493668
  H        14.8698914618        8.5872685950       12.6033609658
  H        50.2870131580       22.7026908391        4.0651163576
  H        49.2688015415       24.5755761357        5.3653681269
  H        45.6097152628       24.1077934868        3.1521910623
  H        46.6517963879       22.2523078937        1.8382173487
  H        47.6069605739       23.5514085098        6.8019204264
  H        40.6401964276       17.1059232620        3.4196592247
  H        48.6863685806       14.0952167597       15.7945497207
  H        10.6815279814       12.4683273036        4.0998310724
  H        11.6894185435       10.5262140430        5.3038252292
  H        15.3915831747       11.1559283643        3.2081239536
  H        14.3631320054       13.0848521638        1.9927190543
  H        13.3763954970       11.6224566764        6.7579792175
  H        47.9292130980       14.2214802880        1.7149980276
  H        47.7803574775       14.3768063407       14.4893965616
  H        49.0802106764       18.5508922817        2.8713392460
  H        10.4146827671       14.1345873856        0.0036426966
  H        24.4831678860        3.0458848423       11.9082594867
  H        25.6068985745        4.9159449051       10.6828998735
  H        23.2083824398        7.7604631504       12.8413397819
  H        22.1044780939        5.8802624898       14.0683204238
  H        23.7899512012        5.8028210863        9.2596218944
  H        36.3809481761       32.1806912477       11.9529501261
  H        35.2528005429       30.3552365866       10.6833646447
  H        37.4718429870       27.4333058353       12.9285683077
  H        38.5830473081       29.2715880560       14.2050073783
  H        37.0029522699       29.4383395283        9.2873579410
  H        25.6783697664        8.6481086335       12.6426260063
  H        36.4850313803       32.2448693718        4.1447592135
  H        35.3782896096       30.4316265187        5.4451534425
  H        37.4919382848       27.4887110651        3.1241778872
  H        38.5774295975       29.3139195476        1.8149604375
  H        37.0303219392       29.4631653406        6.8512434270
  H        46.1085367021       26.5869813873        3.3905545868
  H        44.6672294985       35.1156537855       15.8090055176
  H        24.4281312447        3.0416547912        4.0948566186
  H        25.5527208327        4.8855986036        5.3478189972
  H        23.1523130401        7.7670045684        3.2416530138
  H        22.0393283093        5.9101724961        1.9898074197
  H        23.7757951949        5.7960188676        6.8202686772
  H        44.9505907299       34.3875315147        1.6985736148
  H        44.8982082364       34.2052995369       14.4858350789
  H        40.6624943919       33.2060396052        2.8566231855
  H        23.1499594958        1.9566554071        0.0097782184
  H        25.8326275349       19.6395956595       11.9019810979
  H        23.6634311067       19.6849447114       10.6617421242
  H        22.3379982949       16.2452655643       12.8753093830
  H        24.5103584562       16.2083317357       14.1033694539
  H        23.7234832184       17.6668321335        9.2406098848
  H        35.1113440080       15.4992876044       11.9570588590
  H        37.2251374261       15.4540972211       10.6370454657
  H        38.7283362896       18.7558826206       12.9507333716
  H        36.6044672279       18.7993988516       14.2588003431
  H        37.2243740378       17.3888358572        9.2420983031
  H        20.3613926455       17.9704816134       12.6675106176
  H        35.1489443238       15.4562150826        4.1166984598
  H        37.2798066968       15.4015638353        5.4157422431
  H        38.7552533509       18.7268348529        3.1198582050
  H        36.6185150348       18.7765554854        1.8310502229
  H        37.2380325477       17.3762369598        6.7992663987
  H        35.1751583812       26.6760790651        3.4021474039
  H        28.4964996960       21.0764720476       15.9568103742
  H        25.7553017261       19.6214339188        4.1777640829
  H        23.5727274204       19.6738793227        5.3910094843
  H        22.2861625716       16.1943331786        3.2162722840
  H        24.4702596023       16.1585869076        2.0005517689
  H        23.7007453392       17.6504798642        6.7992040269
  H        29.0160444612       21.7169494266        1.7515758168
  H        29.1890380836       21.7142099383       14.6238775262
  H        32.1361911319       18.6127835223        3.0210292617
  H        27.3748907684       19.0136241904        0.0770978264
  H        14.8446449714       19.6395501585        4.1546552978
  H        17.0057473933       19.6822669524        5.3998744123
  H        18.3035931060       16.1885057896        3.2526360985
  H        16.1374006861       16.1614729415        2.0084038898
  H        16.9240080458       17.6918438573        6.8580148161
  H        46.1002777010       15.4602039526        4.0953428585
  H        43.9778105211       15.4053628020        5.4025206944
  H        42.5310482286       18.7889459047        3.1742245578
  H        44.6559817767       18.8218645167        1.8601773223
  H        44.0107317569       17.3371014116        6.8383470835
  H        20.2855953439       17.9079869382        3.4266449475
  H        46.0533322010       15.4144669340       11.9948209504
  H        43.9240913161       15.3612819188       10.7005451462
  H        42.4996308094       18.7619561403       12.9166011549
  H        44.6374726191       18.8049243933       14.2080914862
  H        43.9968051171       17.3239841328        9.2766920695
  H        46.1979005089       26.6820183959       12.6180805813
  H        52.7402874991       21.0620762527        0.1995681235
  H        14.8805128113       19.6723498657       11.8898382823
  H        17.0816964469       19.7453864666       10.7114060119
  H        18.3396317280       16.2345212426       12.8535649569
  H        16.1397665266       16.1856785885       14.0407057590
  H        16.9473953411       17.7103858676        9.2957573765
  H        52.3189324313       21.6720648689       14.2903058916
  H        52.0102700245       21.6997497733        1.5001903138
  H        49.0643107709       18.6070122529       13.2002562090
  H        13.2468000691       19.0167680140       15.9723114338
  H        29.9267113591       12.4654944732        4.2683812977
  H        28.8494432755       10.5433484785        5.4390128173
  H        25.2529044345       11.1724656602        3.1657637090
  H        26.3435787722       13.0911800404        1.9927141238
  H        27.1232901374       11.6882226408        6.7841443953
  H        30.9925175977       22.7713223263        4.0267399782
  H        32.0016134064       24.6452114439        5.3285499222
  H        35.6671277701       24.1827422839        3.1278935073
  H        34.6458537059       22.3099426940        1.8297361092
  H        33.6473820315       23.5951926541        6.7561369176
  H        25.6849166917        8.5944163595        3.4040682315
  H        30.8948935938       22.7050892450       11.9273110421
  H        31.9275229051       24.5454670001       10.6086500508
  H        35.5361971227       24.1683233600       12.9209494957
  H        34.5108354837       22.3004871514       14.2083101819
  H        33.6126043749       23.5788920984        9.2011727911
  H        40.5930916600       17.1133752468       12.6589064126
  H        32.5302584262       14.1224623221        0.3668379253
  H        29.8648774533       12.5232205951       11.9007679944
  H        28.8149563954       10.6417596891       10.6436243163
  H        25.1632370303       11.2210530741       12.8404223802
  H        26.2181552325       13.1175082491       14.0785814077
  H        27.1046958057       11.7126836312        9.2250875055
  H        33.2806029171       14.1377285054       14.4164787732
  H        33.4079260674       14.4244081783        1.6877385291
  H        32.1820288744       18.5485745722       13.2236827272
  H        30.2397356932       14.1800193658        0.1407457497
  H        16.1203944128        2.9624582111        4.1372233726
  H        14.9549262001        4.8193801032        5.3301482749
  H        17.3620050205        7.6855743030        3.2121832980
  H        18.5110085979        5.8177388517        2.0122037222
  H        16.7541044380        5.7399469701        6.7766681590
  H        44.8285052660       32.1400474534        3.9815693323
  H        45.9377363323       30.3409400474        5.3111150996
  H        43.6808478941       27.3781606967        3.1586486643
  H        42.5978429598       29.1900819212        1.8164652360
  H        44.2296551121       29.4361564916        6.7737374996
  H        14.8487676181        8.5447644460        3.3684593640
  H        44.8998186572       32.2337271066       11.9271237146
  H        46.0245459071       30.4125247304       10.6472770315
  H        43.7614101624       27.4838462371       12.8386922434
  H        42.6435788772       29.3175001502       14.1176303046
  H        44.2675788640       29.4698978456        9.2128147519
  H        35.0731313140       26.5962315588       12.6430631866
  H        36.6047936037       35.1332215122        0.1862215866
  H        16.1453228108        3.0123636315       11.8969394410
  H        14.9755858714        4.8556376426       10.6809810600
  H        17.3920508212        7.7471356860       12.7531486110
  H        18.5392436986        5.8928477714       13.9810167447
  H        16.7652260925        5.7559762458        9.2142578341
  H        36.2806679201       34.4791592844       14.2694002309
  H        36.3844010882       34.2074634706        1.5055596111
  H        40.5761593515       33.1989414482       13.1502128205
  H        17.4704952524        1.9455224784       15.9687349174
  H        28.7075399573       18.9269557015        4.3107051444
  H        30.2507177390       19.9513559086       11.9395523727
  H        31.8399930678       16.2260197814       11.2981122946
  H        30.9236508850       15.3475493840        4.4044358265
  H        28.1151637796       17.3536950398        6.7548290743
  H        29.2813559980       15.0957816680        6.6613251218
  H        31.6433269826       20.9058031923        8.8434107710
  H        32.8627923216       17.4159294017        9.8359988518
  H        28.7520512671       17.1680048731        9.0619570989
  H        18.8538976460        0.8694216307        4.3398615688
  H        40.5276260918       35.2295201418       11.9476185237
  H        42.3200844143       34.4148896303       11.5885968111
  H        22.0877134093        0.6927222181        4.3553391066
  H        11.5976978466       18.7119007484        4.3861492984
  H        52.2649359569       18.4297957184       11.6737282593
  H        49.2538904747       16.4801143634       11.5816067506
  H        10.1506731075       15.7984312129        4.2973884393
  H        50.8492165388       17.6921894070       11.9496596727
  H        10.0454514906       17.3945792555        4.0571536998
  H        20.2141747341        0.0016628808        4.0472974518
  H        39.1833683426       36.1246230177       11.6820520943
 Ni        30.5175821071       18.0192613498       10.6605209996
 Ni        31.1144525105       16.2999424692        8.1588568564
 Ni        29.8787559636       19.0683973883        7.5803454986
 Ni        30.0580998286       17.3019615785        5.3293935039
  O        10.6497474686       14.3652089554       13.4804834907
  O        12.6131605329       14.6574818068       14.5786881459
  O        49.1478526856       16.8460138359       15.9846764615
  O        50.3501298684       20.9363497072       13.6432447464
  O        48.3485184921       20.5934613074       14.6609763719
  O        11.0510579128       17.0541328132       14.4952928985
  O        50.3210746578       20.8817877276        2.4118416213
  O        48.3468020459       20.5868285122        1.3321573083
  O        49.5434470547       18.2485729507        2.0734294686
  O        12.3587056032       18.6244465370        0.0048026362
  O        48.6929029261       14.1486235611       14.7459633337
  O         8.2095109167       14.2102692819        1.3277762108
  O        10.7352123056       14.5065531057        2.6694174374
  O        12.5717444363       14.5826401236        1.3334742073
  O        22.8451109447        2.0450587420       13.4816288968
  O        21.6039462989        3.5920322302       14.5857744930
  O        42.0573461888       34.1363694891       15.9736930767
  O        37.9814409960       33.1363432806       13.5675531691
  O        39.2181758427       31.5759701382       14.6616769882
  O        20.3078512661        1.0385491822       14.4962618998
  O        38.0251432866       33.1868123438        2.4198422578
  O        39.2191298674       31.5839581600        1.3314446362
  O        40.6521805690       33.7688201282        2.0653735135
  O        18.2558412386        1.3753179279        0.0019151937
  O        44.6222961826       35.1003896421       14.7535234443
  O        24.2054901656       -0.0000609030        1.3259612808
  O        22.7528049662        2.0572245307        2.5885058870
  O        21.6234232512        3.5951298799        1.3457329690
  O        27.5034020406       18.7429312686       13.4909191808
  O        26.7695877445       16.9264327063       14.6509053328
  O        30.6441574784       19.3459488465        0.0778769230
  O        33.5533981866       16.3348620482       13.6618910447
  O        34.2752583477       18.1893870923       14.7484727161
  O        29.6006371378       17.0218770066       14.5717069685
  O        33.5575506705       16.3425269589        2.4305877365
  O        34.2982682285       18.2426964457        1.4163648482
  O        31.6426983694       18.3137912119        2.2414634787
  O        30.3319262355       15.1473082198        0.1515809404
  O        28.5539078321       21.0263531971       14.8951679087
  O        28.5128413657       20.9542970684        1.4179956734
  O        27.4579645008       18.6752127859        2.6663010007
  O        26.6940330834       16.9272260843        1.4203222333
  O        13.1488723509       18.6930682308        2.5926859193
  O        13.9194503754       16.9161064384        1.4098288429
  O        50.5952117855       19.3500452421        0.0255468861
  O        47.6831983947       16.3270724712        2.4223789314
  O        46.9511804129       18.1755844670        1.3301870901
  O        11.0692032907       17.0156151748        1.4950354941
  O        47.6763154531       16.3354539018       13.6478256277
  O        46.9274474118       18.2355029457       14.6596071274
  O        49.5680977641       18.3178358119       13.9771336234
  O        10.3183585894       15.1005011211        0.0020887594
  O        52.6706784624       21.0280402659        1.2469494058
  O        12.1467634533       20.8912750053       14.6680155834
  O        13.1088039506       18.6136182621       13.3202811160
  O        13.9576125422       16.9868924990       14.6604854733
  O        29.9857231253       14.4399228570        2.7443571430
  O        28.0881061700       14.6537474148        1.5015439793
  O        32.1444477204       16.8590310711        0.1545121850
  O        30.9602918230       20.9451563482        2.4180210492
  O        32.9409675853       20.6018972771        1.3460431620
  O        29.5712946599       17.0762509940        1.5929290727
  O        30.8480097585       20.8863068185       13.6565667713
  O        32.8676150511       20.5821454370       14.6659267009
  O        31.6809679635       18.2383061908       13.9938692908
  O        28.2652813888       18.6262666141        0.0832227122
  O        32.4962835314       14.2091780190        1.4123327106
  O        32.4076315289       14.2019348038       14.8383838610
  O        29.8659042627       14.5054722416       13.4131525319
  O        28.0417808393       14.5847162443       14.7546429293
  O        17.8890233038        1.9663738917        2.6680771381
  O        18.9559939701        3.5270683807        1.4131985394
  O        39.1686197826       34.1385380424        0.0021768639
  O        43.2804163682       33.0588863833        2.3366833678
  O        42.0348614752       31.5063249763        1.2465610295
  O        20.3170999306        1.0358047953        1.4860468127
  O        43.2761203783       33.1823350662       13.5697970638
  O        42.0053364367       31.5839782038       14.5780050521
  O        40.5789029980       33.7743033972       13.9304215261
  O        22.3666302275        1.3839157878        0.0030133988
  O        36.6724622288       35.0994532577        1.2386530078
  O        16.4449785892        0.0636377204       14.6629791341
  O        17.9362421151        2.0432454795       13.3211203576
  O        18.9187052196        3.5931742160       14.6607921178
  O        29.8653482409       19.0634648457       12.0766877809
  O        29.6615249442       18.9736267952        4.0833632971
  O        31.5201975256       15.7464483510       12.1434906382
  O        31.3347970500       16.2020577396        4.1594192814
  O        32.0281798525       16.9252426663        9.9052834787
  O        29.6536846537       17.5183659724        8.9835630262
  O        30.0420687825       15.6880134264        6.5720629185
  O        31.3470937441       17.9467347171        6.9045741648
  O        30.8412188399       20.4457997879        9.1519271333
  O        28.4426791880       18.1658948506        6.3305196528
  O        39.4567600767       35.2438445110       11.9968017159
  O        19.1413371101        0.0045557813        3.9959045023
  O        41.9699969144       35.1727894266       12.0822415687
  O        21.6915423843       -0.0694587446        3.9009177139
  O        51.3649595970       18.6141877122       12.0004693200
  O        10.7512076201       18.7473571925        3.9100357495
  O        50.0797045374       16.4129493633       12.0864212230
  O         9.5244275693       16.4830719707        3.9963844921
 Zr         9.2935914179       16.0533982575       14.1770194827
 Zr        49.8333688625       16.0072823475        1.7518670362
 Zr        22.0717410461        0.0271138648       14.1849802096
 Zr        42.4593479403       35.1506411738        1.8050900203
 Zr        29.5902478276       19.0650365602       14.2856271425
 Zr        29.5747519178       19.1793543282        1.8715518224
 Zr        11.0358639849       19.0519585259        1.8322326721
 Zr        11.0414953585       19.1547405311       14.2468762056
 Zr        31.3440526699       16.1078635791        1.9599936910
 Zr        31.4538793639       16.0059079124       14.3975706320
 Zr        18.5993984423       -0.0053319732        1.7692612903
 Zr        18.5050599503       -0.0115038532       14.2081250851
 Zr        12.2991079744       16.3240150754       15.9849880012
 Zr        48.6119825635       18.8319809307        0.0153987528
 Zr        20.3125791161        2.4690688312       15.9855285512
 Zr        40.6396578362       32.6830460318       15.9734289803
 Zr        28.3444831619       16.3331608741        0.0949063336
 Zr        32.6434749347       18.8535672203        0.0731206921
  H        32.1877924512       18.3671262662        6.6629313738
  O        30.8377169464       14.4328389420        9.2436035177
  H        31.4855438174       14.4146992781        9.9719620003
  H        29.9845074864       14.1969435468        9.6471471747
  O        32.7739552951       15.3221445642        6.9195351279
  H        33.6482532926       15.7451308563        6.8907400768
  H        32.3649434833       15.5269172545        6.0469322221
  O        28.0041774144       20.0823352104        7.9982948621
  H        27.7368485619       19.4285537267        7.2786443978
  H        27.5542574133       19.7919990372        8.8107136577
  O        30.2903464315       20.5134129129        6.0833883173
  H        30.1035444733       20.0047117524        5.2044042537
  H        29.6595085127       21.2521619881        6.0894250678
  H        30.6577555464       15.3012332203       11.9978707111
  H        30.1870621864       21.1555532271        9.2822854919
