     586
 i =      234, E =     -4847.8408828797
  C        11.8587145986       14.0536209843       13.7364506394
  C        12.4564122661       12.8907817142       13.0180275724
  C        11.7049125724       12.1719318680       12.0761883380
  C        12.2814695885       11.1098420674       11.3837893551
  C        13.6219762786       10.7400339900       11.6118200397
  C        14.3549441820       11.4435450056       12.5854669417
  C        13.7818928240       12.5084263378       13.2769758581
  C        14.2616955556        9.6494619078       10.8384601671
  C        14.2574931792        9.6576013555        9.4167702758
  C        13.7445046503       10.7598186217        8.6628721027
  C        49.1268859861       21.2332159023       13.8744556291
  C        48.5503190232       22.4012222885       13.1474010050
  C        49.3003634658       23.0684659513       12.1663606157
  C        48.7334763384       24.1076656024       11.4332109813
  C        47.4029515085       24.5093735998       11.6618422886
  C        46.6719447857       23.8604875619       12.6753099812
  C        47.2343572341       22.8155588319       13.4046354938
  C        46.7727529692       25.5870985677       10.8645936003
  C        46.7617699148       25.5575341795        9.4428386728
  C        47.2617565253       24.4424666022        8.6993444199
  C        14.8614825547        8.5712623935        8.7035590042
  C        14.8921333432        8.5973414652       11.5151546501
  C        49.1134396016       21.2036601624        2.1505162200
  C        48.5281058615       22.3648558108        2.8778567402
  C        49.2676324790       23.0261759316        3.8701531104
  C        48.6912843823       24.0607510891        4.6015617423
  C        47.3606332761       24.4570047076        4.3637868070
  C        46.6398819324       23.8114879402        3.3409059961
  C        47.2134415140       22.7755300220        2.6092197207
  C        46.7222161742       25.5320142466        5.1547714992
  C        46.7340782715       25.5284364298        6.5764560441
  C        47.2495023302       24.4291958900        7.3327976848
  C        40.6406476957       17.2053035219        7.3157364533
  C        40.6519351216       17.1898699298        4.5076536245
  C        11.8830422262       14.0866241598        2.2906358164
  C        12.4725901081       12.9108660709        2.9949114982
  C        11.7153105899       12.1776713441        3.9211904243
  C        12.2821612954       11.0953295222        4.5895937044
  C        13.6209749078       10.7217361109        4.3575964152
  C        14.3586605326       11.4372881950        3.3965781503
  C        13.7930109732       12.5183438969        2.7238942559
  C        14.2548341992        9.6251134534        5.1279670078
  C        14.2538309405        9.6452867969        6.5497954307
  C        13.7440825658       10.7543269355        7.2968265913
  C        22.5102793541        3.2449833596       13.7476734626
  C        23.2204890575        4.3533460796       13.0466569339
  C        24.2100999754        4.0782220804       12.0915615987
  C        24.8306063574        5.1213443429       11.4086739957
  C        24.4772442601        6.4618946316       11.6610229831
  C        23.5165063686        6.7284573510       12.6534090744
  C        22.8912479516        5.6871284930       13.3343074060
  C        25.0752456899        7.5719679667       10.8843199373
  C        25.0421681382        7.5665219222        9.4626979945
  C        24.3369263093        6.5684557862        8.7175805461
  C        38.3046030089       31.9288935465       13.8431788397
  C        37.5819489854       30.8372007860       13.1321819049
  C        36.6261743925       31.1351573118       12.1490695846
  C        36.0178644143       30.1104232962       11.4296788025
  C        36.3507692583       28.7633223599       11.6723232623
  C        37.2764800771       28.4729909218       12.6920812629
  C        37.8889903842       29.4961323475       13.4100847711
  C        35.7560627162       27.6671491171       10.8765388313
  C        35.7871095287       27.6791663794        9.4555628816
  C        36.4895409123       28.6830464925        8.7173576283
  C        25.6629381265        8.6364765340        8.7410000344
  C        25.6712368010        8.6490687174       11.5533607344
  C        38.3288607267       31.9610307936        2.1616444106
  C        37.6099417553       30.8856449555        2.9022095436
  C        36.6827429585       31.1891088747        3.9109419573
  C        36.0779660164       30.1668698437        4.6398437184
  C        36.3857267387       28.8155306455        4.3836356555
  C        37.2894836023       28.5221760545        3.3440855823
  C        37.8965250198       29.5406820128        2.6165873867
  C        35.7851289475       27.7125429552        5.1681311808
  C        35.8020186619       27.7028989840        6.5899334630
  C        36.4963612049       28.6948507152        7.3509532595
  C        46.1359761472       26.6210041684        7.2865941749
  C        46.0881722168       26.5802903977        4.4787025455
  C        22.4581372279        3.2553159407        2.2621861883
  C        23.1468740464        4.3667992509        2.9857366868
  C        24.1431140349        4.0853982458        3.9336838088
  C        24.7647860911        5.1193904358        4.6294102954
  C        24.4100238043        6.4634230394        4.3983171421
  C        23.4370471554        6.7381046503        3.4189991056
  C        22.8103333242        5.7043033257        2.7244905997
  C        25.0346782228        7.5649861431        5.1713381860
  C        25.0218670743        7.5623332804        6.5938098563
  C        24.3252775133        6.5679022075        7.3509055232
  C        26.6233457321       17.8584908468       13.7813138350
  C        25.3151242461       17.9013235213       13.0577768767
  C        25.0619314933       18.8891577479       12.0925511672
  C        23.8492068510       18.9083063410       11.4058108051
  C        22.8534514722       17.9425789653       11.6609455388
  C        23.1040060058       16.9780385015       12.6551707114
  C        24.3181550986       16.9539199058       13.3404005884
  C        21.5799588803       17.9258133912       10.8968231062
  C        21.5795397315       17.8954902660        9.4744961482
  C        22.7841627242       17.7624533658        8.7141612107
  C        34.4734580101       17.2651179090       13.9183212850
  C        35.7607488794       17.2258007604       13.1682648997
  C        35.9614662870       16.2658830849       12.1641933020
  C        37.1375795910       16.2645153716       11.4206736225
  C        38.1435803782       17.2189083181       11.6660047131
  C        37.9450868277       18.1597631762       12.6937639989
  C        36.7647531281       18.1692717713       13.4321622269
  C        39.3957868412       17.2297112774       10.8795325199
  C        39.3882949382       17.2479154345        9.4587718333
  C        38.1809519026       17.3847638956        8.7041737497
  C        20.3330732949       17.9124357932        8.7656410502
  C        20.3548336571       17.9337142945       11.5789172298
  C        34.4774960080       17.2498888604        2.1837846746
  C        35.7788103732       17.1824984195        2.9067553318
  C        35.9797367069       16.2299275433        3.9168787811
  C        37.1646852333       16.2242493858        4.6469097804
  C        38.1757079816       17.1685280614        4.3829346958
  C        37.9806429771       18.0937489017        3.3406885513
  C        36.7930213420       18.1067699514        2.6154140717
  C        39.4229229966       17.1978615539        5.1752457239
  C        39.4023847851       17.2331510247        6.5954528953
  C        38.1878376060       17.3760313856        7.3377248348
  C        35.1773525836       26.6210059210        7.2953049315
  C        35.1939642054       26.6418381535        4.4864495537
  C        26.5702505705       17.8204719751        2.3316193521
  C        25.2591439302       17.8578364611        3.0423763284
  C        25.0034518855       18.8461429996        4.0045153991
  C        23.7843091321       18.8698341638        4.6753802254
  C        22.7938320445       17.9023507971        4.4119226730
  C        23.0461095793       16.9368689749        3.4203542784
  C        24.2647871978       16.9130553818        2.7451386755
  C        21.5300448446       17.8810543962        5.1839927118
  C        21.5539091394       17.8691194211        6.6056208645
  C        22.7718870797       17.7486755497        7.3480174643
  C        14.0465871678       17.8272104331        2.2954068074
  C        15.3505831666       17.8794540372        3.0230634162
  C        15.6112347021       18.8815067261        3.9708150554
  C        16.8203759554       18.8975203340        4.6640379205
  C        17.8034245123       17.9142213363        4.4318602513
  C        17.5471714594       16.9357308501        3.4527650726
  C        16.3376259625       16.9152182383        2.7611324831
  C        19.0733571937       17.8931566901        5.2002067408
  C        19.0726312409       17.8893193532        6.6227502273
  C        17.8656767264       17.7932997611        7.3843319414
  C        46.8066489426       17.2184542618        2.1614595654
  C        45.5163269656       17.1603693691        2.9029138157
  C        45.3137399368       16.2001729730        3.9056991590
  C        44.1322605999       16.1941782758        4.6416083971
  C        43.1260798202       17.1481417133        4.3944202433
  C        43.3243034839       18.0840856996        3.3617041134
  C        44.5065489594       18.0948926939        2.6278500349
  C        41.8764553336       17.1784951213        5.1845121951
  C        41.8860032186       17.1994418331        6.6056265314
  C        43.0969778785       17.2952682016        7.3610572003
  C        20.3196050462       17.8985564041        7.3307749036
  C        20.2974153935       17.8729118925        4.5177435729
  C        46.7899461309       17.2348849993       13.8819343227
  C        45.4902545582       17.1456782387       13.1612133568
  C        45.2646534810       16.1583746240       12.1905593146
  C        44.0790351000       16.1531989324       11.4603275295
  C        43.0920812001       17.1321533809       11.6855292104
  C        43.3082661030       18.0894816728       12.6937330848
  C        44.4946317960       18.1013611816       13.4184935269
  C        41.8473115211       17.1751904458       10.8901829338
  C        41.8709930797       17.1952642191        9.4700573377
  C        43.0900271069       17.2897484910        8.7276739781
  C        46.1537773066       26.6374425018        8.7211271547
  C        46.1626189676       26.6560786675       11.5307691650
  C        14.0457954309       17.8315853578       13.7038027639
  C        15.3676277372       17.9051975632       13.0140481969
  C        15.6419131911       18.9183111191       12.0832425045
  C        16.8716008094       18.9540350719       11.4293778991
  C        17.8547814496       17.9758652896       11.6806583293
  C        17.5873916346       16.9919992537       12.6498684072
  C        16.3597311039       16.9556330791       13.3070873111
  C        19.1223288575       17.9477207516       10.9119186113
  C        19.0980231465       17.9167378945        9.4904885879
  C        17.8780500733       17.8055376942        8.7503069570
  C        28.8037523048       14.0934521661        2.3953857849
  C        28.1832675785       12.9246719204        3.0844298501
  C        28.9015012082       12.1807681664        4.0321712677
  C        28.2961865883       11.1080184193        4.6819181243
  C        26.9590656112       10.7562070080        4.4076214160
  C        26.2620496649       11.4815303729        3.4249660059
  C        26.8650875245       12.5545121474        2.7736762500
  C        26.2853257932        9.6781906152        5.1669857339
  C        26.2684379612        9.7073833008        6.5874646391
  C        26.7711374703       10.8218430075        7.3310109333
  C        32.1831276769       21.2416583455        2.1489555365
  C        32.7825423393       22.4016009352        2.8683726877
  C        32.0449771587       23.0664310525        3.8599306687
  C        32.6207607379       24.1017878176        4.5886794347
  C        33.9503431693       24.4985220228        4.3478129943
  C        34.6702739430       23.8515614531        3.3257112085
  C        34.0967801639       22.8112498568        2.5978767593
  C        34.5846722298       25.5698182366        5.1477797458
  C        34.5841906438       25.5367425137        6.5694909659
  C        34.0789557065       24.4206362940        7.3090458875
  C        25.6577790166        8.6308294450        7.3069697169
  C        25.6517104203        8.6256274917        4.4941874568
  C        32.1118442978       21.2383459048       13.8789291018
  C        32.7054202171       22.3867713743       13.1409686994
  C        31.9841508376       23.0364451972       12.1281913803
  C        32.5744899431       24.0577570496       11.3898261466
  C        33.8990059439       24.4586021086       11.6456216665
  C        34.6047436391       23.8228841235       12.6859800102
  C        34.0201316317       22.7949532680       13.4192382102
  C        34.5462309069       25.5311300746       10.8573687810
  C        34.5622189413       25.5168757397        9.4352234920
  C        34.0650493757       24.4102677842        8.6760117811
  C        40.6329186935       17.2081856079        8.7489946681
  C        40.6187669014       17.2104698587       11.5580434696
  C        28.7088531772       14.1032491969       13.7779656398
  C        28.0965434377       12.9611029824       13.0369572265
  C        28.8393370432       12.2391366606       12.0891391420
  C        28.2573958278       11.1784207136       11.3986327453
  C        26.9178103193       10.8095242758       11.6362440791
  C        26.1922360791       11.5180930678       12.6117033763
  C        26.7717658644       12.5810008303       13.3016697292
  C        26.2775498382        9.7122327293       10.8723814463
  C        26.2670045898        9.7244378568        9.4515240097
  C        26.7680712665       10.8309030631        8.6963872926
  C        18.1354007512        3.1807457214        2.3223546907
  C        17.4061967055        4.2781483739        3.0209804626
  C        16.3907337454        4.0000240079        3.9488246301
  C        15.7432206853        5.0401697362        4.6122999837
  C        16.0951492195        6.3838241801        4.3723102771
  C        17.0842769624        6.6531143248        3.4082196360
  C        17.7331188500        5.6156082878        2.7431944097
  C        15.4711228862        7.4917100299        5.1353028437
  C        15.4866152087        7.4911843826        6.5569995036
  C        16.1880804461        6.4975124637        7.3101807988
  C        42.9460151014       31.8593745930        2.0779679234
  C        43.6463521697       30.7718685603        2.8220181953
  C        44.5920232053       31.0932166607        3.8079633818
  C        45.1977766514       30.0876807886        4.5555820235
  C        44.8712339015       28.7346187148        4.3408419557
  C        43.9452256935       28.4202551443        3.3278102010
  C        43.3363300783       29.4253826332        2.5798311779
  C        45.4889303583       27.6553718993        5.1440005376
  C        45.4932099760       27.6810878648        6.5656853617
  C        44.8058573013       28.6889524713        7.3123022644
  C        14.8578528874        8.5637985951        7.2693469417
  C        14.8757402160        8.5634061528        4.4566767973
  C        42.9463123955       31.9612691907       13.8037643641
  C        43.6915460646       30.8852726625       13.0902867507
  C        44.6561713093       31.1912457697       12.1180214993
  C        45.2778274336       30.1716846325       11.4004146645
  C        44.9540599545       28.8213475605       11.6379775580
  C        44.0204782192       28.5236353564       12.6486454997
  C        43.3920460070       29.5403583017       13.3607187180
  C        45.5632693280       27.7240511228       10.8527406174
  C        45.5335910296       27.7174524476        9.4314424767
  C        44.8271062271       28.7075669857        8.6784862626
  C        35.1680023304       26.6093619663        8.7297926353
  C        35.1551586895       26.5914442245       11.5389322358
  C        18.1484185258        3.2467866368       13.7014770116
  C        17.4298066342        4.3437615822       12.9923031273
  C        16.4149727250        4.0526389952       12.0682949732
  C        15.7668203943        5.0833786065       11.3928955024
  C        16.1213095313        6.4285860370       11.6160032786
  C        17.1122306628        6.7118134767       12.5737800114
  C        17.7597322671        5.6828033542       13.2535430805
  C        15.4911094067        7.5244620725       10.8435976823
  C        15.4974469947        7.5080310920        9.4224716929
  C        16.1941784856        6.5062926658        8.6757832183
  H        10.6727948529       12.4660476016       11.8990528470
  H        11.6953117343       10.5514025832       10.6571104379
  H        15.3919224324       11.1688847539       12.7673819238
  H        14.3511368824       13.0716626562       14.0125729543
  H        13.3773934308       11.6318851633        9.1962147988
  H        50.3230503229       22.7483879706       11.9815855396
  H        49.3199589418       24.6229058226       10.6756131738
  H        45.6424251347       24.1612201671       12.8584024027
  H        46.6632905309       22.2903850937       14.1667259098
  H        47.6301369293       23.5760201600        9.2410202788
  H        14.8719765086        8.5883418828       12.6034507904
  H        50.2878825561       22.7037503775        4.0646719634
  H        49.2698369389       24.5766735241        5.3646292995
  H        45.6102512467       24.1082506512        3.1523252907
  H        46.6522956341       22.2528031559        1.8382866261
  H        47.6081981615       23.5520629372        6.8018643022
  H        40.6553850232       17.1360005981        3.4207256198
  H        48.6869172743       14.0949275740       15.7949752794
  H        10.6818116689       12.4666048967        4.0986816921
  H        11.6905340555       10.5249054051        5.3024061083
  H        15.3940791872       11.1594550253        3.2105061556
  H        14.3650912448       13.0877152770        1.9951584677
  H        13.3772501945       11.6229114510        6.7581395670
  H        47.9303767398       14.2179443181        1.7162907737
  H        47.7799804729       14.3727998362       14.4898926178
  H        49.0838827595       18.5525598535        2.8725102867
  H        10.4161302634       14.1342086636        0.0037467778
  H        24.4704390697        3.0406303151       11.8943168179
  H        25.5978621870        4.9073795130       10.6677439125
  H        23.2359009543        7.7601619569       12.8550630940
  H        22.1267778202        5.8834580165       14.0820835963
  H        23.7744677427        5.8131966468        9.2587520194
  H        36.3850853852       32.1768893463       11.9510579015
  H        35.2759331306       30.3437994682       10.6692289497
  H        37.5400416824       27.4353887567       12.8862588542
  H        38.6296129589       29.2806107585       14.1764667882
  H        37.0541788791       29.4337573079        9.2625390182
  H        25.7092532544        8.6326542742       12.6411136937
  H        36.4571338120       32.2320743674        4.1215866893
  H        35.3541146790       30.4076563437        5.4152599662
  H        37.5388263955       27.4831727122        3.1390774903
  H        38.6172670340       29.3187370969        1.8334367846
  H        37.0669895901       29.4542289039        6.8241797495
  H        46.1093713905       26.5875582949        3.3906646005
  H        44.6680050495       35.1159853024       15.8087911530
  H        24.4206536077        3.0481017983        4.1069028684
  H        25.5411738769        4.8951686985        5.3577571759
  H        23.1522256603        7.7715377268        3.2322212681
  H        22.0427864010        5.9120856207        1.9825871939
  H        23.7529533059        5.8127428207        6.8198909133
  H        44.9533805562       34.3901503014        1.7001432034
  H        44.9011871226       34.2066252292       14.4853592127
  H        40.6654119270       33.2082287917        2.8579552002
  H        23.1503271903        1.9573157552        0.0101023570
  H        25.8293861799       19.6361978941       11.9004175876
  H        23.6560009695       19.6817779257       10.6653421058
  H        22.3471744757       16.2240850207       12.8621869166
  H        24.5207698265       16.1964156695       14.0940595692
  H        23.7236995932       17.6398418724        9.2450126892
  H        35.1791891332       15.5339086558       11.9773315122
  H        37.2947049370       15.5150325231       10.6480856073
  H        38.7150303348       18.9046626075       12.8838927882
  H        36.5914885930       18.9101853506       14.2091299328
  H        37.2450547834       17.5254272854        9.2373483512
  H        20.3613136067       17.9804857783       12.6665222934
  H        35.1895860498       15.5121024438        4.1263592558
  H        37.3205454831       15.4839228054        5.4285236426
  H        38.7565747108       18.8277989115        3.1335620580
  H        36.6181405640       18.8397947494        1.8314602258
  H        37.2570481374       17.5097280988        6.7941832188
  H        35.1590435377       26.6700998076        3.3990202418
  H        28.5101190471       21.0891612603       15.9541456263
  H        25.7733553848       19.5857540718        4.2109478101
  H        23.5845518633       19.6425449709        5.4145852696
  H        22.2903028782       16.1825311043        3.2113861056
  H        24.4751828610       16.1570765234        1.9923910288
  H        23.7023219419       17.6161128961        6.8039086516
  H        28.9774218908       21.7299586203        1.7827587958
  H        29.1536447931       21.7470807603       14.6033433771
  H        32.1105427216       18.5692382454        2.9809711412
  H        27.4020386764       19.0699183426        0.0853066954
  H        14.8560181755       19.6438298610        4.1489098096
  H        17.0184476748       19.6811966941        5.3921769406
  H        18.2951487719       16.1682375098        3.2644416948
  H        16.1287459590       16.1465983578        2.0208124146
  H        16.9229899037       17.6779197538        6.8572798358
  H        46.0994454312       15.4744244466        4.1020352978
  H        43.9738968359       15.4437416247        5.4129080177
  H        42.5531481895       18.8264088226        3.1667825200
  H        44.6792950105       18.8328123045        1.8480862106
  H        44.0379848652       17.4030239163        6.8293410320
  H        20.2911232056       17.9057656319        3.4296932764
  H        46.0333753331       15.4102685301       12.0106730929
  H        43.9039994189       15.3878333959       10.7074051465
  H        42.5502302731       18.8493328238       12.8718179686
  H        44.6855893891       18.8589922830       14.1743383086
  H        44.0256614360       17.3914562732        9.2699398716
  H        46.1993398838       26.6825385916       12.6182181725
  H        52.7411464513       21.0626033701        0.1997980835
  H        14.8815182051       19.6714504389       11.8885900352
  H        17.0830977853       19.7424840204       10.7102490431
  H        18.3377944384       16.2304043956       12.8517879700
  H        16.1379910838       16.1829920974       14.0392370081
  H        16.9446759312       17.6992293697        9.2949054240
  H        52.3223329102       21.6732213869       14.2892087357
  H        52.0131596478       21.7018901343        1.5008375120
  H        49.0685456967       18.6087113243       13.1990448236
  H        13.2477944030       19.0161303813       15.9725513181
  H        29.9320760724       12.4565671080        4.2447157342
  H        28.8546003643       10.5294219519        5.4146751222
  H        25.2285710870       11.2199378534        3.2071637387
  H        26.3254394629       13.1365686756        2.0306672374
  H        27.1346143256       11.6891688720        6.7882728042
  H        31.0259113760       22.7433032438        4.0563524889
  H        32.0448105980       24.6166203263        5.3544203947
  H        35.6993691470       24.1490190760        3.1350418921
  H        34.6583640730       22.2857739277        1.8289520666
  H        33.7222853203       23.5506351421        6.7650266386
  H        25.6855740622        8.6030767134        3.4063735884
  H        30.9667100914       22.7220162237       11.9117099416
  H        32.0091763428       24.5546583749       10.6050109475
  H        35.6315607067       24.1210341359       12.8871419835
  H        34.5704313814       22.2784011488       14.2020833235
  H        33.6933322313       23.5326111356        9.1994751825
  H        40.6127234803       17.1662996950       12.6454213825
  H        32.5323437386       14.1296554308        0.3542970556
  H        29.8822935894       12.5044743494       11.9267245640
  H        28.8408667041       10.6134356049       10.6746755184
  H        25.1561422867       11.2446290711       12.8008094676
  H        26.2098840825       13.1421170983       14.0447893077
  H        27.1273399233       11.7060945063        9.2293755806
  H        33.2798768225       14.1447942563       14.4066993189
  H        33.4069242354       14.4365592817        1.6792552177
  H        32.1497045557       18.5447573932       13.1218015577
  H        30.2314858765       14.1893961243        0.0740055019
  H        16.1185873178        2.9635693308        4.1354039315
  H        14.9538779542        4.8209180073        5.3281175871
  H        17.3665725579        7.6859698161        3.2148037500
  H        18.5148143045        5.8180228680        2.0149221406
  H        16.7543911203        5.7399795743        6.7766988829
  H        44.8283538406       32.1402898402        3.9820889109
  H        45.9377020708       30.3414006371        5.3114781878
  H        43.6822868256       27.3782116229        3.1579206422
  H        42.5994668940       29.1899496183        1.8154430495
  H        44.2302320412       29.4365145069        6.7740065330
  H        14.8515849627        8.5464415973        3.3684686384
  H        44.8997165066       32.2339225611       11.9266102119
  H        46.0248279897       30.4128793156       10.6472685756
  H        43.7634744721       27.4839131523       12.8401702565
  H        42.6454376511       29.3174436663       14.1190159009
  H        44.2682250705       29.4701822499        9.2130648159
  H        35.1106645222       26.6066321518       12.6262490671
  H        36.6047901975       35.1336913030        0.1859217663
  H        16.1439648869        3.0130852110       11.8982840745
  H        14.9747875174        4.8566023193       10.6824631475
  H        17.3954572942        7.7472900662       12.7510558471
  H        18.5421789903        5.8930662674       13.9788178660
  H        16.7652830880        5.7558406706        9.2142721613
  H        36.2777065843       34.4826728075       14.2680302078
  H        36.3797807593       34.2095299508        1.5054503820
  H        40.5800176539       33.2018027137       13.1487337188
  H        17.4703477032        1.9465623841       15.9689305635
  H        28.7243182014       19.0380224335        4.2988714251
  H        30.1537059838       20.0831137226       11.8834073354
  H        31.7558999448       16.3415861633       11.2354028057
  H        31.1199642691       15.5029183789        4.4494868852
  H        27.9161143239       17.3368376931        6.3487709167
  H        29.4581920646       15.0596092367        6.4673735429
  H        31.3675729625       21.1302460875        8.2870586645
  H        32.6121175483       17.6496038916        9.8171658550
  H        28.5554276375       17.0786540773        8.8927732983
  H        18.8527485249        0.8688206340        4.3402787993
  H        40.5275757548       35.2293509774       11.9471089596
  H        42.3231225186       34.4178917154       11.5863521164
  H        22.0880570687        0.6918735331        4.3566205336
  H        11.5968541553       18.7133674213        4.3879523946
  H        52.2647289460       18.4311519724       11.6717295973
  H        49.2551470092       16.4769364855       11.5796992770
  H        10.1501768565       15.7982362523        4.2980101603
  H        50.8499437465       17.6922785572       11.9492392828
  H        10.0460974119       17.3944563509        4.0571273054
  H        20.2138209737        0.0021057999        4.0473033432
  H        39.1831950515       36.1243584549       11.6814771559
 Ni        30.1789970408       18.1188937919       10.5754229230
 Ni        31.0676855210       16.3320057299        8.1591603661
 Ni        29.8041742958       18.9576937102        7.4963239180
 Ni        30.0133023847       17.3752384693        5.0856059527
  O        10.6499747571       14.3650793313       13.4806792356
  O        12.6132631934       14.6574776396       14.5787710885
  O        49.1484884595       16.8458151279       15.9847384273
  O        50.3503913609       20.9356825866       13.6429411701
  O        48.3486807446       20.5934914345       14.6608314514
  O        11.0518736014       17.0537591693       14.4955063856
  O        50.3212828996       20.8816641534        2.4119954514
  O        48.3468668973       20.5869210069        1.3324511004
  O        49.5440349829       18.2485193281        2.0734953887
  O        12.3592069111       18.6246747120        0.0049316406
  O        48.6932999259       14.1484902347       14.7462150769
  O         8.2099521573       14.2102560543        1.3276411126
  O        10.7354670076       14.5066731053        2.6694846805
  O        12.5719655396       14.5826897959        1.3335836145
  O        22.8450058472        2.0447318556       13.4815774488
  O        21.6049195199        3.5923612857       14.5851454532
  O        42.0580370704       34.1371581416       15.9738139403
  O        37.9821708856       33.1372026437       13.5673780615
  O        39.2191859740       31.5767088029       14.6625190574
  O        20.3082493212        1.0392382555       14.4966113911
  O        38.0245081246       33.1851197525        2.4204593468
  O        39.2195698867       31.5842023596        1.3311872516
  O        40.6522655884       33.7692333849        2.0655361041
  O        18.2552761979        1.3757212331        0.0018947261
  O        44.6222137068       35.1005518015       14.7535737066
  O        24.2053174016        0.0000964390        1.3259604143
  O        22.7528048303        2.0583780588        2.5890275588
  O        21.6236201952        3.5953754227        1.3459237756
  O        27.4961150216       18.7473548152       13.4914140925
  O        26.7682454995       16.9291519033       14.6515439401
  O        30.6738818335       19.4026572155        0.0236096797
  O        33.6241014851       16.3431933603       13.6657798114
  O        34.3081261626       18.2388114413       14.7344281796
  O        29.5868299025       17.0625310007       14.5627578635
  O        33.6212485078       16.3317626068        2.4153143031
  O        34.3032702060       18.2503600387        1.4087972150
  O        31.6491791505       18.3177905996        2.1636351575
  O        30.3286061879       15.1558195393        0.0879173529
  O        28.5545606139       21.0339569737       14.8895009706
  O        28.5119746645       20.9609173898        1.4127723969
  O        27.4543551984       18.6767172806        2.6607529463
  O        26.6948142675       16.9272549651        1.4157763194
  O        13.1496454957       18.6925569626        2.5930163880
  O        13.9195190639       16.9160524765        1.4101596955
  O        50.5968086651       19.3504295121        0.0258514526
  O        47.6841587309       16.3267436341        2.4221857873
  O        46.9534618225       18.1760980821        1.3282676442
  O        11.0699931541       17.0155131759        1.4948856674
  O        47.6762320834       16.3350908050       13.6472397067
  O        46.9331751422       18.2352829825       14.6619414079
  O        49.5691812741       18.3176615945       13.9771921416
  O        10.3186190116       15.1000485448        0.0021437654
  O        52.6707839299       21.0278061501        1.2469441212
  O        12.1469230095       20.8912045311       14.6681021697
  O        13.1087036058       18.6135794852       13.3203729379
  O        13.9574126778       16.9870113200       14.6604217473
  O        29.9887824263       14.4384457854        2.7347531887
  O        28.0885339926       14.6558683176        1.4958937322
  O        32.1486254064       16.8643098896        0.0858045397
  O        30.9688726227       20.9534333688        2.4117096191
  O        32.9481712877       20.6007252412        1.3410122071
  O        29.5672936688       17.0783282771        1.5800035792
  O        30.8790048199       20.9536397888       13.6565215390
  O        32.8787514918       20.5875726321       14.6613295470
  O        31.6796367955       18.2403636871       13.9141630934
  O        28.2900741977       18.6769827124        0.0792335126
  O        32.4982312041       14.2089920480        1.4020022117
  O        32.4059826377       14.2124579247       14.8263809438
  O        29.8659305076       14.5075769074       13.4082779976
  O        28.0397219915       14.5857839028       14.7491610821
  O        17.8891027944        1.9665567890        2.6679626150
  O        18.9561242632        3.5270295734        1.4130390647
  O        39.1687342425       34.1388137898        0.0023347018
  O        43.2802035138       33.0590105057        2.3367681238
  O        42.0346631497       31.5064088296        1.2467798860
  O        20.3174168052        1.0363697039        1.4856198975
  O        43.2760382549       33.1824085664       13.5697923105
  O        42.0053311950       31.5839910576       14.5779427193
  O        40.5790186207       33.7748233295       13.9306241750
  O        22.3670950351        1.3843221040        0.0030217687
  O        36.6727414945       35.0996690759        1.2384748489
  O        16.4453812971        0.0640977820       14.6631404690
  O        17.9363340820        2.0433682006       13.3211634634
  O        18.9189043358        3.5931003379       14.6608464467
  O        29.7846735188       19.1982520651       12.0685713420
  O        29.6594840659       19.1247667754        4.0001539740
  O        31.5252771198       15.7573552896       12.0729882656
  O        31.3495191863       16.3393534150        3.9970699000
  O        31.8410194162       17.0693599134        9.9217369377
  O        29.4555789935       17.4393364270        8.9002316382
  O        30.2011468337       15.6790711068        6.4052760481
  O        31.4225142974       17.9549681204        6.9277232371
  O        31.5585289146       21.0992089206        9.2431643235
  O        28.3459721367       18.1632125381        6.0734270143
  O        39.4567004166       35.2438067460       11.9968578598
  O        19.1408946336        0.0043745665        3.9957377852
  O        41.9697771682       35.1727598522       12.0822467076
  O        21.6913976732       -0.0693170825        3.9009061495
  O        51.3651037108       18.6142392718       12.0003315417
  O        10.7512323844       18.7471764267        3.9100603481
  O        50.0797953217       16.4128220616       12.0866358564
  O         9.5244046874       16.4831062173        3.9963586347
 Zr         9.2967437713       16.0526413794       14.1775156656
 Zr        49.8362588115       16.0065974161        1.7514369119
 Zr        22.0728439327        0.0287688516       14.1842948406
 Zr        42.4605071046       35.1523364641        1.8057657817
 Zr        29.5990628035       19.0967841748       14.2571551874
 Zr        29.5805633583       19.1934875781        1.8514928546
 Zr        11.0381884426       19.0520570838        1.8329588306
 Zr        11.0439798490       19.1548499869       14.2460219837
 Zr        31.3433583405       16.1082918491        1.9133775907
 Zr        31.4470854678       16.0180135519       14.3400777347
 Zr        18.6004150705       -0.0027065264        1.7686286967
 Zr        18.5057193473       -0.0090232162       14.2085047031
 Zr        12.3017696803       16.3237137312       15.9851817260
 Zr        48.6174995303       18.8335436864        0.0158997686
 Zr        20.3137103159        2.4715749498       15.9852473965
 Zr        40.6427284106       32.6858255479       15.9733426140
 Zr        28.3501898200       16.3530919558        0.0901497728
 Zr        32.6388865028       18.8569620035        0.0545525210
  H        32.1841937611       18.5480013745        7.0480319096
  O        30.7950775757       14.3648922317        9.2417117614
  H        31.5078251030       14.3926185124        9.9072396183
  H        29.9746012637       14.2823740809        9.7574939971
  O        32.6992452094       15.3129341289        7.0007299169
  H        33.0181600200       16.0840723884        6.4953258286
  H        31.8498903778       15.0985799415        6.5140418039
  O        27.9252002654       20.0711603459        7.8170482333
  H        27.7008721996       19.3739263839        7.1178110035
  H        27.5035214778       19.7933284183        8.6466126741
  O        30.2882992393       20.5221987023        6.1648736606
  H        30.1600894714       20.0739131430        5.2559617277
  H        29.5553312900       21.1582700824        6.2345514214
  H        30.6472472906       15.3451262974       11.9419472975
  H        31.1567216335       20.2404266614        9.5112763670
