     586
 i =       99, E =     -4847.8242604396
  C        11.8584041370       14.0538030626       13.7365163084
  C        12.4561108283       12.8906992971       13.0179921472
  C        11.7045048391       12.1720091669       12.0761523325
  C        12.2808342655       11.1097695638       11.3837401307
  C        13.6212349969       10.7396942721       11.6117876510
  C        14.3543355611       11.4430380432       12.5854325756
  C        13.7814657325       12.5080496339       13.2769446376
  C        14.2608653857        9.6490198626       10.8384685961
  C        14.2566837690        9.6570327089        9.4167539605
  C        13.7437962215       10.7592825718        8.6628371808
  C        49.1265281539       21.2332879909       13.8745479154
  C        48.5497370405       22.4012144468       13.1474088452
  C        49.2998958667       23.0688853320       12.1667573293
  C        48.7329241180       24.1080451021       11.4336552850
  C        47.4021382414       24.5090624699       11.6618509976
  C        46.6709459601       23.8596868293       12.6748454241
  C        47.2334301680       22.8147336123       13.4040921230
  C        46.7718985840       25.5867912041       10.8647209277
  C        46.7611494794       25.5574467368        9.4428790142
  C        47.2608688186       24.4423034263        8.6994617930
  C        14.8605238308        8.5705857022        8.7035612006
  C        14.8912087769        8.5968506135       11.5151649670
  C        49.1130204458       21.2032967869        2.1504492981
  C        48.5276936657       22.3646441642        2.8777826258
  C        49.2670258377       23.0256036765        3.8704401704
  C        48.6906608427       24.0602081306        4.6017813350
  C        47.3600534939       24.4564895500        4.3638983680
  C        46.6394372697       23.8111431818        3.3408165266
  C        47.2129885537       22.7751531165        2.6091654969
  C        46.7216636563       25.5315941119        5.1546914684
  C        46.7334413770       25.5282085535        6.5764619108
  C        47.2486523246       24.4289843739        7.3328480276
  C        40.6358253580       17.1393823728        7.3248439445
  C        40.6582509000       17.1861039202        4.5137779596
  C        11.8827061274       14.0866772737        2.2903623889
  C        12.4724232234       12.9108377737        2.9949108845
  C        11.7148902046       12.1775019524        3.9208290393
  C        12.2814959649       11.0950626509        4.5893463993
  C        13.6202739700       10.7213654728        4.3575026487
  C        14.3582596610       11.4369634334        3.3967708370
  C        13.7927684278       12.5181121234        2.7240383319
  C        14.2539570284        9.6246172332        5.1279122594
  C        14.2530086242        9.6446775914        6.5497651527
  C        13.7433498680       10.7537588423        7.2967845071
  C        22.5152946381        3.2463179549       13.7493195308
  C        23.2371064148        4.3527948891       13.0541463901
  C        24.2393811688        4.0721811691       12.1135413824
  C        24.8728111345        5.1107223555       11.4347584694
  C        24.5208594813        6.4538754637       11.6757250347
  C        23.5469267853        6.7262229681       12.6540304248
  C        22.9088136502        5.6891378699       13.3310959791
  C        25.1310599806        7.5591476783       10.8982376772
  C        25.0966041138        7.5530107530        9.4761123853
  C        24.3883076394        6.5555621421        8.7331186461
  C        38.3038214310       31.9299360742       13.8439777958
  C        37.5799287986       30.8391538902       13.1332262981
  C        36.6261979542       31.1385144931       12.1484874730
  C        36.0177141678       30.1147083128       11.4281866444
  C        36.3475929200       28.7670183051       11.6721733369
  C        37.2704646777       28.4755591376       12.6943184097
  C        37.8834918358       29.4977433257       13.4130060053
  C        35.7531988154       27.6720886592       10.8754466481
  C        35.7822181633       27.6867194560        9.4536563101
  C        36.4856688400       28.6892577515        8.7157785009
  C        25.7178041028        8.6215623846        8.7517029278
  C        25.7363501069        8.6327876043       11.5651531682
  C        38.3287944578       31.9621985799        2.1606071092
  C        37.6074489623       30.8883369378        2.8994590863
  C        36.6851130146       31.1942167478        3.9119096759
  C        36.0789468099       30.1733721832        4.6410009970
  C        36.3806373829       28.8213710660        4.3810929985
  C        37.2793206537       28.5259321770        3.3376355156
  C        37.8881939070       29.5430081056        2.6101739134
  C        35.7790659757       27.7201946952        5.1655739381
  C        35.7959936239       27.7109413902        6.5878510714
  C        36.4923589766       28.7007036243        7.3488694412
  C        46.1358081311       26.6210889674        7.2865523494
  C        46.0877549881       26.5799900029        4.4787156560
  C        22.4596876697        3.2567277026        2.2656329915
  C        23.1513784894        4.3663406241        2.9929153083
  C        24.1521689246        4.0808315569        3.9353890866
  C        24.7799532664        5.1109545450        4.6325605893
  C        24.4278077544        6.4575829987        4.4101801490
  C        23.4474336019        6.7359570246        3.4387153127
  C        22.8149638942        5.7060313659        2.7423376291
  C        25.0619652464        7.5569609233        5.1823489842
  C        25.0602962987        7.5520215150        6.6056662163
  C        24.3695370363        6.5560042355        7.3663978419
  C        26.6238673158       17.8589346954       13.7800933302
  C        25.3166643791       17.9026047423       13.0565050115
  C        25.0662829669       18.8887781684       12.0887020524
  C        23.8531914786       18.9103347415       11.4028349355
  C        22.8549804633       17.9477029849       11.6601461834
  C        23.1029019137       16.9844783920       12.6565135596
  C        24.3171689497       16.9582955819       13.3412346154
  C        21.5813567471       17.9321386391       10.8962492142
  C        21.5802220697       17.9046900404        9.4736831708
  C        22.7845879009       17.7760148661        8.7122005184
  C        34.4245394803       17.2279341851       13.8825087671
  C        35.7152607810       17.1715401639       13.1465362123
  C        35.9147712127       16.2168208642       12.1347268871
  C        37.0987081688       16.2026187432       11.4045647650
  C        38.1214161995       17.1370697547       11.6684420736
  C        37.9263005154       18.0658294112       12.7099925392
  C        36.7382277769       18.0886084179       13.4345706338
  C        39.3759602528       17.1454486340       10.8891114971
  C        39.3743301916       17.1580266722        9.4650024938
  C        38.1727843418       17.2924748358        8.7052038910
  C        20.3331796152       17.9207553697        8.7657029950
  C        20.3562900555       17.9375889122       11.5787946131
  C        34.4787286826       17.2478969055        2.1847783224
  C        35.7801741738       17.1729003327        2.9042967986
  C        35.9974869057       16.1886157330        3.8822223409
  C        37.1817137672       16.1767877923        4.6128796954
  C        38.1824050366       17.1423319119        4.3807630661
  C        37.9726645688       18.0962120705        3.3668325972
  C        36.7846759235       18.1170087527        2.6423798652
  C        39.4267040703       17.1655541977        5.1758129324
  C        39.4003596594       17.1693718021        6.5986393937
  C        38.1843491868       17.2942786660        7.3367668746
  C        35.1688943796       26.6302701627        7.2925222696
  C        35.1882201031       26.6497697341        4.4834310833
  C        26.5667401729       17.8236126468        2.3320879518
  C        25.2551796054       17.8655802015        3.0403192665
  C        24.9963293035       18.8622877573        3.9933758547
  C        23.7780036150       18.8875152034        4.6655546978
  C        22.7900933840       17.9155074281        4.4096219894
  C        23.0441215832       16.9435897596        3.4247125375
  C        24.2625373851       16.9167926910        2.7492948157
  C        21.5272842482       17.8948146690        5.1832832397
  C        21.5526051655       17.8830014779        6.6048178686
  C        22.7714110302       17.7652050179        7.3460306924
  C        14.0458483754       17.8276293874        2.2950099534
  C        15.3496691142       17.8818879932        3.0228714467
  C        15.6065250285       18.8827936836        3.9727960655
  C        16.8151633304       18.9012622329        4.6666541823
  C        17.8011760162       17.9214523491        4.4328151303
  C        17.5486398637       16.9441648275        3.4515795608
  C        16.3394823811       16.9210979004        2.7594281192
  C        19.0709888067       17.9029104830        5.2009909586
  C        19.0712936447       17.8978122879        6.6235267699
  C        17.8649284786       17.7987341089        7.3856598619
  C        46.8068196661       17.2199897474        2.1645879405
  C        45.5206936478       17.1639843360        2.9111067217
  C        45.3184546506       16.1984248407        3.9095820371
  C        44.1390675830       16.1894973768        4.6478454021
  C        43.1314000570       17.1448285669        4.4086178638
  C        43.3313730459       18.0889413578        3.3827964630
  C        44.5119867410       18.1032427113        2.6465894395
  C        41.8802809782       17.1627073879        5.1946828078
  C        41.8841845970       17.1544819641        6.6189313342
  C        43.0891649331       17.2464465845        7.3797499462
  C        20.3186960789       17.9089102629        7.3308364785
  C        20.2945524618       17.8849750896        4.5176795460
  C        46.7835124791       17.2287860162       13.8867114896
  C        45.4790539562       17.1191214676       13.1789646017
  C        45.2645730846       16.1323475544       12.2039677070
  C        44.0771319898       16.1104314996       11.4777868944
  C        43.0719600407       17.0705428993       11.7093655090
  C        43.2752743601       18.0219352883       12.7274012532
  C        44.4644868115       18.0521430298       13.4474381267
  C        41.8300343338       17.1041902520       10.9096889402
  C        41.8587334502       17.1214809712        9.4857501907
  C        43.0770303988       17.2271505369        8.7483137143
  C        46.1534658685       26.6375092975        8.7211147104
  C        46.1619980540       26.6559658348       11.5307006121
  C        14.0457902937       17.8318010223       13.7040552179
  C        15.3682682826       17.9061833003       13.0147776900
  C        15.6432808893       18.9209406175       12.0859937381
  C        16.8731145784       18.9573575729       11.4323088648
  C        17.8558849294       17.9783229476       11.6818045748
  C        17.5878357433       16.9926756149       12.6490169548
  C        16.3600015209       16.9557159285       13.3060833186
  C        19.1233642125       17.9514293707       10.9126044583
  C        19.0984632100       17.9222307170        9.4911330881
  C        17.8782109348       17.8097395594        8.7516327490
  C        28.7979361469       14.0864020324        2.3623233071
  C        28.1903164987       12.9190526869        3.0613004604
  C        28.9122737424       12.1944202587        4.0208482804
  C        28.3142688355       11.1232349583        4.6808529859
  C        26.9811873501       10.7530489999        4.4069923251
  C        26.2796749357       11.4640601460        3.4159393916
  C        26.8750693393       12.5344591151        2.7533569828
  C        26.3149190562        9.6725081392        5.1727042938
  C        26.3076406170        9.6979013950        6.5942317959
  C        26.8134331801       10.8107029076        7.3388048331
  C        32.1807909170       21.2445526008        2.1503694774
  C        32.7770654579       22.4078668571        2.8658576936
  C        32.0409325220       23.0682128260        3.8615788409
  C        32.6149834640       24.1055729115        4.5887114344
  C        33.9418146707       24.5085143608        4.3429858812
  C        34.6606044509       23.8662315217        3.3167072322
  C        34.0885517971       22.8241059781        2.5905866497
  C        34.5757924632       25.5792080581        5.1434527902
  C        34.5747038256       25.5470456561        6.5656831123
  C        34.0684678299       24.4320284368        7.3045689243
  C        25.7028925850        8.6188929219        7.3165906456
  C        25.6752071208        8.6197105691        4.5035873382
  C        32.1176970052       21.2392006473       13.8843679765
  C        32.7122794640       22.3849550125       13.1417196982
  C        31.9833949235       23.0422708405       12.1373810243
  C        32.5715306015       24.0634143957       11.3960296306
  C        33.9009882687       24.4599873700       11.6413484976
  C        34.6116977965       23.8174748713       12.6737999713
  C        34.0303091854       22.7881650504       13.4087231786
  C        34.5444643168       25.5358615416       10.8549562658
  C        34.5560020695       25.5263078817        9.4324698124
  C        34.0575820135       24.4233101241        8.6717041440
  C        40.6225084704       17.1277937180        8.7594070934
  C        40.5980617809       17.1391232274       11.5707733296
  C        28.7595194825       14.1029105689       13.7807711392
  C        28.1638506035       12.9490371090       13.0445116836
  C        28.9068252958       12.2362444352       12.0904258954
  C        28.3275640396       11.1701280737       11.4046256870
  C        26.9909013120       10.7915437932       11.6461291221
  C        26.2668749445       11.4930141553       12.6280385993
  C        26.8426039973       12.5592529948       13.3147831731
  C        26.3478251179        9.6935195783       10.8830907722
  C        26.3282185715        9.7071471594        9.4615909117
  C        26.8221783450       10.8157413226        8.7045841660
  C        18.1353842644        3.1808662120        2.3222657503
  C        17.4057394264        4.2780591728        3.0204936189
  C        16.3909763255        3.9995946341        3.9490413589
  C        15.7432117931        5.0395047227        4.6125853003
  C        16.0942040293        6.3833573910        4.3721377226
  C        17.0825243217        6.6529310728        3.4072488438
  C        17.7316570271        5.6156641266        2.7421535854
  C        15.4701196989        7.4910860914        5.1352585206
  C        15.4855707536        7.4904210105        6.5569692762
  C        16.1870422850        6.4967934130        7.3102149983
  C        42.9459733512       31.8593108476        2.0780869797
  C        43.6464890566       30.7719857614        2.8217968945
  C        44.5919026321       31.0932834166        3.8080382693
  C        45.1976391664       30.0877429881        4.5555821223
  C        44.8713475799       28.7346166711        4.3406143113
  C        43.9457903002       28.4203280690        3.3270932198
  C        43.3369036050       29.4254591697        2.5791982563
  C        45.4887666458       27.6553346446        5.1438033354
  C        45.4931598657       27.6812112512        6.5655484816
  C        44.8062700392       28.6893196134        7.3121468422
  C        14.8568963370        8.5630972252        7.2693251593
  C        14.8747978319        8.5628603659        4.4566628851
  C        42.9468351557       31.9612924752       13.8041705926
  C        43.6914402369       30.8855266371       13.0901976675
  C        44.6560063619       31.1914690202       12.1178124047
  C        45.2774098099       30.1719312900       11.4000548745
  C        44.9541267308       28.8215052267       11.6381090912
  C        44.0212128000       28.5238414643       12.6494891757
  C        43.3930466463       29.5405485685       13.3617171572
  C        45.5628590490       27.7241433233       10.8527899314
  C        45.5335789505       27.7177303673        9.4314139132
  C        44.8274725250       28.7079616917        8.6783831540
  C        35.1608820351       26.6187780329        8.7271859870
  C        35.1558636649       26.5940079592       11.5373011259
  C        18.1485902934        3.2469251200       13.7015412204
  C        17.4293478056        4.3436937992       12.9928884611
  C        16.4151842354        4.0522826876       12.0682001607
  C        15.7667389359        5.0828233032       11.3928203709
  C        16.1204492864        6.4282192725       11.6162372680
  C        17.1106624476        6.7116831180       12.5747237395
  C        17.7584780738        5.6828725480       13.2544899287
  C        15.4901746028        7.5239199322       10.8436622163
  C        15.4964517341        7.5073421627        9.4225230652
  C        16.1931559792        6.5055949131        8.6758200804
  H        10.6724682181       12.4664333457       11.8989913831
  H        11.6945698350       10.5514715855       10.6570401982
  H        15.3912611771       11.1682170870       12.7674121257
  H        14.3506591181       13.0712477391       14.0126136894
  H        13.3766992152       11.6313523043        9.1961964662
  H        50.3227851206       22.7492069087       11.9824719900
  H        49.3194131372       24.6235249999       10.6762417334
  H        45.6411446648       24.1597672577       12.8573339196
  H        46.6621501724       22.2887533403       14.1654751447
  H        47.6290445258       23.5757913479        9.2411872201
  H        14.8709963227        8.5879834403       12.6034624533
  H        50.2872312158       22.7030742462        4.0649750360
  H        49.2690387555       24.5758380819        5.3651610912
  H        45.6097713866       24.1077886355        3.1523269422
  H        46.6519387035       22.2523795291        1.8381861303
  H        47.6070862795       23.5517045431        6.8019734373
  H        40.6669742490       17.1579787138        3.4258464377
  H        48.6867218734       14.0949633998       15.7947056785
  H        10.6814242236       12.4666609034        4.0981939700
  H        11.6896515051       10.5246630997        5.3019982995
  H        15.3936838935       11.1590701781        3.2108170582
  H        14.3649166927       13.0876254178        1.9954614328
  H        13.3764869387       11.6223045294        6.7580430914
  H        47.9297406433       14.2197684467        1.7154198923
  H        47.7803538410       14.3756872318       14.4896735115
  H        49.0827464364       18.5519952692        2.8721659475
  H        10.4152852059       14.1344979122        0.0036174637
  H        24.4999859790        3.0332383473       11.9238515145
  H        25.6492435843        4.8904214154       10.7052798253
  H        23.2659165320        7.7593156181       12.8481574880
  H        22.1349057890        5.8917783799       14.0675677647
  H        23.8288486032        5.7994720409        9.2763425555
  H        36.3875044323       32.1806686360       11.9497372401
  H        35.2778175284       30.3493134581       10.6661255760
  H        37.5321673477       27.4376684947       12.8894395114
  H        38.6225345038       29.2814722447       14.1807142506
  H        37.0522104989       29.4387731423        9.2605389950
  H        25.7753321841        8.6172217315       12.6529510983
  H        36.4645503934       32.2378216884        4.1246873127
  H        35.3585584804       30.4154990028        5.4192069379
  H        37.5237795543       27.4862977539        3.1299995966
  H        38.6056818468       29.3201672798        1.8242935492
  H        37.0648475587       29.4587429567        6.8222328449
  H        46.1089530479       26.5870112860        3.3906834609
  H        44.6679699287       35.1159399189       15.8087649044
  H        24.4299264216        3.0425609201        4.1028065956
  H        25.5599072986        4.8803028027        5.3551425639
  H        23.1609033097        7.7701518535        3.2588404285
  H        22.0430676895        5.9195961237        2.0064970166
  H        23.7951188951        5.8002805759        6.8383877867
  H        44.9528818636       34.3896999780        1.6998194347
  H        44.9004595505       34.2063559484       14.4853008389
  H        40.6654546316       33.2083972554        2.8577876557
  H        23.1511748123        1.9571987936        0.0112389595
  H        25.8361561995       19.6324159979       11.8929898751
  H        23.6632591632       19.6827414845       10.6604126266
  H        22.3441756026       16.2327850938       12.8647921536
  H        24.5173752777       16.2013225130       14.0960282039
  H        23.7253589281       17.6558540529        9.2414334484
  H        35.1282878499       15.4917387158       11.9375478784
  H        37.2538944843       15.4535735111       10.6311088981
  H        38.7072387909       18.7938627329       12.9194489255
  H        36.5725888298       18.8217650528       14.2206140642
  H        37.2352205780       17.4284048418        9.2359226124
  H        20.3631974166       17.9825773801       12.6664811061
  H        35.2218967387       15.4459969430        4.0588920301
  H        37.3520553678       15.4111950749        5.3668472888
  H        38.7390352259       18.8461681096        3.1823690696
  H        36.6008219494       18.8731087988        1.8827488285
  H        37.2560355061       17.4292659195        6.7894860542
  H        35.1540741458       26.6788344687        3.3959915899
  H        28.5102768686       21.0897085728       15.9658581736
  H        25.7618593401       19.6086235261        4.1920324290
  H        23.5773271319       19.6650446363        5.3994590606
  H        22.2894440054       16.1865644509        3.2214621435
  H        24.4741280035       16.1550205034        2.0026924714
  H        23.7023770454       17.6376241604        6.8016403231
  H        28.9809919084       21.7291440331        1.7810511940
  H        29.1344574448       21.7604319368       14.6065207041
  H        32.1228985189       18.5924781855        2.9727303922
  H        27.4001945174       19.0705859387        0.0919064181
  H        14.8486557031       19.6422563184        4.1518055635
  H        17.0104196205       19.6840649134        5.3964987722
  H        18.2991895640       16.1794622083        3.2621548722
  H        16.1331281393       16.1534887973        2.0173465816
  H        16.9221162574       17.6822078996        6.8590936174
  H        46.1027054942       15.4693415080        4.0989215804
  H        43.9816634277       15.4337934001        5.4140896825
  H        42.5620597065       18.8350585023        3.1953998905
  H        44.6844035127       18.8472869422        1.8725638674
  H        44.0321833968       17.3652960485        6.8541128944
  H        20.2873380936       17.9180034489        3.4296287224
  H        46.0449550683       15.3982804336       12.0168115995
  H        43.9151066686       15.3463600501       10.7206896501
  H        42.5049671111       18.7671972865       12.9139560932
  H        44.6432162752       18.8087595667       14.2073873452
  H        44.0109621671       17.3293203164        9.2931396264
  H        46.1985559682       26.6821524048       12.6181533226
  H        52.7409156178       21.0624169258        0.1996879159
  H        14.8831975600       19.6747617916       11.8927112829
  H        17.0850344522       19.7471521358       10.7147608585
  H        18.3377947131       16.2302683525       12.8495911541
  H        16.1377447606       16.1817919137       14.0367411535
  H        16.9453899361       17.7016642927        9.2968661749
  H        52.3216566768       21.6729730888       14.2893554794
  H        52.0123113554       21.7013400282        1.5006669206
  H        49.0652841408       18.6068601368       13.1996619080
  H        13.2472895347       19.0165418076       15.9724495658
  H        29.9372752878       12.4869997755        4.2381297351
  H        28.8777925736       10.5591898812        5.4208623350
  H        25.2485803157       11.1930465708        3.1985702652
  H        26.3310082662       13.1031019953        2.0030222569
  H        27.1676793580       11.6818720849        6.7959061974
  H        31.0260607757       22.7376109795        4.0670465479
  H        32.0389589557       24.6164461830        5.3570181587
  H        35.6879027188       24.1677150880        3.1226660994
  H        34.6493266157       22.3026427488        1.8183376291
  H        33.7075244734       23.5637780545        6.7606374527
  H        25.7011173502        8.5986067719        3.4154797740
  H        30.9571809658       22.7392883290       11.9422405796
  H        31.9996247191       24.5727686444       10.6235229512
  H        35.6402769152       24.1133483955       12.8695677968
  H        34.5848606761       22.2691515666       14.1870744537
  H        33.6890512621       23.5482506464        9.1992301084
  H        40.5891127616       17.0999728984       12.6583981911
  H        32.5315137954       14.1420975955        0.2756780307
  H        29.9424387105       12.5177989040       11.9105222842
  H        28.9112487829       10.6100533250       10.6771712308
  H        25.2332213477       11.2152600871       12.8229288569
  H        26.2809745719       13.1165698179       14.0606000202
  H        27.1808198914       11.6912949764        9.2378764724
  H        33.2904344813       14.1716417885       14.4133059927
  H        33.4095506653       14.3954010090        1.6287165356
  H        32.1094265582       18.5472682848       13.1682970853
  H        30.2414848020       14.1915232529        0.0831807803
  H        16.1194848396        2.9630486260        4.1360075196
  H        14.9543187542        4.8199932826        5.3288162389
  H        17.3638915748        7.6859274930        3.2132115483
  H        18.5126902764        5.8183980039        2.0132503454
  H        16.7534194772        5.7392700220        6.7768001325
  H        44.8281286596       32.1403251579        3.9824207165
  H        45.9373090146       30.3413679304        5.3117412573
  H        43.6832424848       27.3782446238        3.1569290106
  H        42.6004153776       29.1899519249        1.8145059828
  H        44.2308355451       29.4370467813        6.7739122189
  H        14.8506147620        8.5459760522        3.3684517959
  H        44.8991646585       32.2341457020       11.9259428612
  H        46.0238627991       30.4130883315       10.6463705065
  H        43.7646779658       27.4840717469       12.8413341212
  H        42.6468681207       29.3175461050       14.1203811572
  H        44.2687971828       29.4707979174        9.2128235188
  H        35.1147728043       26.6073265103       12.6248078645
  H        36.6048065320       35.1338703555        0.1859260786
  H        16.1446875188        3.0126548035       11.8979088374
  H        14.9750292238        4.8558044248       10.6821080439
  H        17.3930535182        7.7473007606       12.7525377660
  H        18.5403124268        5.8934875173       13.9803276678
  H        16.7643476748        5.7551712339        9.2142432364
  H        36.2781249162       34.4826780312       14.2680310646
  H        36.3804703152       34.2094212899        1.5052664119
  H        40.5801884110       33.2021313739       13.1486293848
  H        17.4709213302        1.9471177788       15.9690576448
  H        28.7513752942       19.0592579823        4.2894373449
  H        30.2382367321       20.0741987972       11.9291228398
  H        31.9676738437       16.2623246252       11.2572132800
  H        30.8458361268       15.3608144319        4.3487512795
  H        28.0874784341       17.3687516399        6.6555684555
  H        28.9834355552       15.2343428654        6.3310682809
  H        31.6022286340       19.9796206573        9.3371431126
  H        32.1345972360       17.7192055299        9.5210299425
  H        28.8689561138       16.8537951598        8.8351019366
  H        18.8528461131        0.8690299428        4.3401929022
  H        40.5274449560       35.2293166270       11.9470135261
  H        42.3236623574       34.4181409239       11.5863709768
  H        22.0881419553        0.6917075957        4.3567478690
  H        11.5971705232       18.7130399973        4.3870719481
  H        52.2647829820       18.4306640656       11.6725463495
  H        49.2544275340       16.4789258210       11.5807582340
  H        10.1504731415       15.7983670863        4.2977977610
  H        50.8497592569       17.6922390937       11.9494392650
  H        10.0459342159       17.3944453688        4.0571091858
  H        20.2138017359        0.0021122541        4.0472873202
  H        39.1832143341       36.1245117254       11.6814810946
 Ni        29.9710230424       18.2314848430       10.4917871625
 Ni        31.1568435814       16.1290758105        7.5794254691
 Ni        29.9243617941       18.9996213847        7.6599863308
 Ni        29.9707149644       17.3063431923        5.0823688582
  O        10.6498603010       14.3649609339       13.4805170325
  O        12.6131320216       14.6575759654       14.5787255575
  O        49.1481739047       16.8458133390       15.9845885695
  O        50.3501823458       20.9362224241       13.6431428000
  O        48.3483861146       20.5936793648       14.6608349419
  O        11.0512605078       17.0540651749       14.4954994657
  O        50.3210671069       20.8818398049        2.4119529002
  O        48.3466258551       20.5871528982        1.3320956052
  O        49.5436619687       18.2488009031        2.0732823760
  O        12.3589541674       18.6245799341        0.0048367954
  O        48.6931135159       14.1486954171       14.7460814693
  O         8.2097036652       14.2103210194        1.3276066868
  O        10.7355211305       14.5067624567        2.6696923215
  O        12.5719740598       14.5828624571        1.3336820927
  O        22.8459566365        2.0453000695       13.4816031220
  O        21.6069333666        3.5937250630       14.5836550359
  O        42.0580044413       34.1368615008       15.9738101938
  O        37.9823512058       33.1382762355       13.5674989772
  O        39.2192838376       31.5774380673       14.6621348302
  O        20.3080855506        1.0398218733       14.4969347314
  O        38.0249266025       33.1862188953        2.4197444934
  O        39.2197419986       31.5848675883        1.3307557137
  O        40.6532540733       33.7695234473        2.0654442482
  O        18.2558115305        1.3761861695        0.0020032470
  O        44.6222821213       35.1005608512       14.7535403591
  O        24.2052094372        0.0000601773        1.3260015468
  O        22.7536267901        2.0588794425        2.5898213074
  O        21.6252499035        3.5972083120        1.3493308123
  O        27.4976086612       18.7471173368       13.4917970634
  O        26.7686868855       16.9296837721       14.6521670272
  O        30.6735982436       19.4056652825        0.0641974646
  O        33.5439650829       16.3421536933       13.5824969520
  O        34.2733375761       18.1698716252       14.7332414231
  O        29.5788243649       17.0664950800       14.5651220725
  O        33.6178300797       16.3319144121        2.4190215571
  O        34.3054056699       18.2486369667        1.4099093562
  O        31.6522645930       18.3071659399        2.1720820155
  O        30.3293987151       15.1588879833        0.0867063078
  O        28.5546165040       21.0337451405       14.8970184120
  O        28.5109022638       20.9611461388        1.4144086017
  O        27.4557779459       18.6762936720        2.6634052943
  O        26.6932883045       16.9287006403        1.4186602413
  O        13.1491412703       18.6928064392        2.5928786553
  O        13.9192175910       16.9162308026        1.4101001073
  O        50.5957888565       19.3504340277        0.0253279678
  O        47.6848732116       16.3268906284        2.4218887526
  O        46.9533216900       18.1761270031        1.3287267939
  O        11.0696333492       17.0154410959        1.4948368124
  O        47.6764757185       16.3351271043       13.6482453526
  O        46.9279988773       18.2355130161       14.6599224681
  O        49.5685475951       18.3181093904       13.9769881320
  O        10.3184260376       15.1003729049        0.0019595847
  O        52.6705467653       21.0278189563        1.2468780936
  O        12.1465976930       20.8911117770       14.6680914672
  O        13.1088231022       18.6135927957       13.3204818094
  O        13.9572914640       16.9870701062       14.6604495064
  O        29.9914311219       14.4330404417        2.6684197050
  O        28.0742263316       14.6588573710        1.4819274391
  O        32.1467608953       16.8561266900        0.0888173713
  O        30.9682309641       20.9519584209        2.4155530916
  O        32.9469698141       20.6004915704        1.3442538516
  O        29.5708066387       17.0735424157        1.5843743473
  O        30.8844846998       20.9612534267       13.6651292083
  O        32.8837616518       20.5847477156       14.6653297731
  O        31.6765562845       18.2484488725       13.9837443655
  O        28.2873751853       18.6756601406        0.0818150518
  O        32.4968510336       14.2103576936        1.3382206446
  O        32.4070364776       14.2144255073       14.8162081492
  O        29.9226968738       14.5102605352       13.4155552734
  O        28.0598244510       14.5864870024       14.7359827367
  O        17.8892979181        1.9665478570        2.6677733509
  O        18.9563040305        3.5270937516        1.4129821226
  O        39.1689198371       34.1394813762        0.0022741895
  O        43.2805775570       33.0589175430        2.3369690969
  O        42.0346709601       31.5063428459        1.2466294704
  O        20.3174824945        1.0369549043        1.4853135697
  O        43.2759188419       33.1825866106       13.5692946889
  O        42.0051338040       31.5841016399       14.5777640811
  O        40.5798773824       33.7749656401       13.9306410964
  O        22.3674647652        1.3848913515        0.0033236077
  O        36.6727289971       35.0998339253        1.2384690274
  O        16.4452797233        0.0643934279       14.6631827372
  O        17.9363257477        2.0434176980       13.3213369459
  O        18.9191544308        3.5932970061       14.6609311327
  O        29.8559757334       19.2043538998       12.1395418767
  O        29.6915492172       19.0520246282        4.0056822321
  O        31.3546455385       16.0437669493       11.9932426884
  O        31.3940574778       16.1263756871        4.0582814071
  O        32.6456162635       16.8725171599        9.4289985759
  O        29.7852208061       16.8295443930        9.1627542341
  O        29.8714210899       15.5367519048        6.0876143699
  O        31.2974349075       17.8871941416        6.6720943864
  O        30.6731900815       19.7028912928        9.3298684791
  O        28.5190273776       18.1762837520        6.3321583323
  O        39.4566539208       35.2439572166       11.9969223023
  O        19.1408744400        0.0045478367        3.9956444700
  O        41.9699212514       35.1728805023       12.0821955382
  O        21.6913719954       -0.0693463431        3.9008762701
  O        51.3649950322       18.6143002396       12.0003385659
  O        10.7511355544       18.7473786280        3.9100093413
  O        50.0796780288       16.4130587743       12.0865461315
  O         9.5244518318       16.4830593965        3.9963771205
 Zr         9.2949802274       16.0531412163       14.1771509184
 Zr        49.8349166066       16.0068927894        1.7515654750
 Zr        22.0727798057        0.0292276846       14.1843388026
 Zr        42.4605135074       35.1524269870        1.8057735262
 Zr        29.5952686782       19.1112805995       14.2656338005
 Zr        29.5803529800       19.1891824365        1.8556484873
 Zr        11.0369598145       19.0518572545        1.8323671805
 Zr        11.0428410315       19.1547710656       14.2463125063
 Zr        31.3549584740       16.0903210772        1.9064017322
 Zr        31.4190786589       16.0319247516       14.3408144224
 Zr        18.6006507745       -0.0024724115        1.7685445907
 Zr        18.5058551416       -0.0085644749       14.2086209784
 Zr        12.3003074881       16.3240729853       15.9849665271
 Zr        48.6143106363       18.8325600524        0.0148971444
 Zr        20.3149333189        2.4726989083       15.9854492887
 Zr        40.6428923479       32.6859517970       15.9733995000
 Zr        28.3445904470       16.3561011520        0.0873115492
 Zr        32.6332816921       18.8548192627        0.0632613457
  H        32.1719706083       18.2831241968        6.5302899038
  O        30.9265671880       14.5729172060        9.1521491761
  H        30.2420751407       15.2769878487        9.3956172415
  H        30.4513472792       13.7995523777        8.8135256710
  O        32.7409808983       15.3914735898        6.3229326201
  H        33.6031365159       15.8208967730        6.4450956086
  H        32.4153015341       15.7005852287        5.4210063184
  O        27.8824472937       20.1492444339        7.9916414387
  H        27.7045270516       19.4208814002        7.3336304606
  H        27.5991546680       19.8226850423        8.8626066253
  O        30.3309457021       20.5858768726        6.1645198754
  H        30.1592457670       20.1248683370        5.2882245710
  H        29.5852093084       21.1956471266        6.2928751416
  H        30.7959546423       15.2946749080       11.7098958472
  H        33.5905061959       17.1223149478        9.4328525788
