     586
 i =      106, E =     -4847.8314980206
  C        11.8588952326       14.0535126236       13.7364373726
  C        12.4563334673       12.8906364203       13.0181338668
  C        11.7045949050       12.1716939460       12.0765075984
  C        12.2809557495       11.1095064021       11.3841382272
  C        13.6215212069       10.7396790560       11.6118884164
  C        14.3547392281       11.4433193631       12.5852630861
  C        13.7819049836       12.5083124423       13.2767761250
  C        14.2610152950        9.6489848802       10.8385121258
  C        14.2564292580        9.6569642579        9.4168192196
  C        13.7434693631       10.7591900778        8.6629246392
  C        49.1270138929       21.2332202621       13.8744504219
  C        48.5502719371       22.4011386198       13.1474127153
  C        49.3003523169       23.0686188086       12.1665532844
  C        48.7333826315       24.1077730882       11.4333983051
  C        47.4028044953       24.5093421993       11.6619707115
  C        46.6718345894       23.8603468483       12.6754078067
  C        47.2343203046       22.8154582073       13.4047391287
  C        46.7724516697       25.5869563060       10.8646804294
  C        46.7615206135       25.5573508443        9.4429241709
  C        47.2616917629       24.4423740140        8.6994117588
  C        14.8602953300        8.5705731487        8.7035812931
  C        14.8915675080        8.5969335828       11.5151934882
  C        49.1134015044       21.2035769498        2.1503632678
  C        48.5279356452       22.3647541959        2.8776830486
  C        49.2672035456       23.0256003702        3.8704892373
  C        48.6908525912       24.0601623527        4.6019252967
  C        47.3604129345       24.4568928163        4.3637397324
  C        46.6400117556       23.8119576035        3.3402097558
  C        47.2135960716       22.7760768088        2.6084269813
  C        46.7219124635       25.5318119735        5.1547762999
  C        46.7337082736       25.5281622730        6.5764739699
  C        47.2494052001       24.4290701208        7.3328586606
  C        40.6344047656       17.1527077013        7.3255155353
  C        40.6559943544       17.1752107101        4.5165228257
  C        11.8830732688       14.0863819214        2.2904959701
  C        12.4725115728       12.9108811930        2.9949859886
  C        11.7149407207       12.1775327110        3.9209513746
  C        12.2815452398       11.0950904829        4.5893589503
  C        13.6204157825       10.7214645951        4.3576251127
  C        14.3584169854       11.4371415910        3.3969282356
  C        13.7929976116       12.5183193258        2.7242497640
  C        14.2539432222        9.6246315243        5.1279849666
  C        14.2527134478        9.6446579281        6.5498179737
  C        13.7429795721       10.7536774393        7.2968787221
  C        22.5134628704        3.2455498151       13.7482356358
  C        23.2315372204        4.3509904516       13.0501755810
  C        24.2306185732        4.0697365510       12.1063991806
  C        24.8615805459        5.1080842381       11.4257448534
  C        24.5096478962        6.4508376383       11.6680573678
  C        23.5385670709        6.7237853637       12.6488551487
  C        22.9030464569        5.6870708732       13.3280599499
  C        25.1174630245        7.5560989980       10.8908211511
  C        25.0867729432        7.5478045750        9.4689528704
  C        24.3835953270        6.5476997261        8.7247251843
  C        38.3043267481       31.9296531024       13.8432804123
  C        37.5798861998       30.8386847496       13.1323997942
  C        36.6243852237       31.1385152632       12.1496168129
  C        36.0143882257       30.1150532674       11.4298289452
  C        36.3452304040       28.7674364303       11.6720602671
  C        37.2707004605       28.4752851103       12.6915050437
  C        37.8849759674       29.4971750866       13.4098728833
  C        35.7494495317       27.6723895849       10.8755022747
  C        35.7813493203       27.6853553713        9.4544193601
  C        36.4850788012       28.6884437731        8.7162914804
  C        25.7061993988        8.6179205017        8.7459745098
  C        25.7167184369        8.6320470185       11.5587171609
  C        38.3286217430       31.9619912285        2.1608139865
  C        37.6075042598       30.8877180061        2.9007301437
  C        36.6824853930       31.1936588658        3.9106021685
  C        36.0756215807       30.1729828572        4.6397606546
  C        36.3793316703       28.8211539449        4.3821018588
  C        37.2807256995       28.5253335875        3.3412750950
  C        37.8899323885       29.5423429455        2.6136027909
  C        35.7770982056       27.7195952449        5.1668634529
  C        35.7956458221       27.7093778053        6.5886002302
  C        36.4917880419       28.7000663206        7.3498001821
  C        46.1355296696       26.6206917881        7.2866250608
  C        46.0878843780       26.5801354840        4.4787253560
  C        22.4608586253        3.2555875971        2.2628370104
  C        23.1551686669        4.3639432483        2.9864824078
  C        24.1583694755        4.0770692663        3.9258493035
  C        24.7866379143        5.1065219157        4.6226531777
  C        24.4316005038        6.4523879539        4.4025137501
  C        23.4514273616        6.7326463574        3.4316417921
  C        22.8185552742        5.7034254229        2.7354491738
  C        25.0629518370        7.5505285057        5.1761739117
  C        25.0588235623        7.5445982414        6.5990734486
  C        24.3688346105        6.5470906463        7.3579936057
  C        26.6209735299       17.8577779236       13.7825592436
  C        25.3136003277       17.9004852357       13.0584283001
  C        25.0658160911       18.8857967261       12.0893126989
  C        23.8532988928       18.9082167296       11.4024527317
  C        22.8538811954       17.9470752588       11.6598148719
  C        23.0998928721       16.9841218640       12.6569177298
  C        24.3135285403       16.9569883137       13.3427957270
  C        21.5805872247       17.9320097222       10.8953036430
  C        21.5796630788       17.9045041210        9.4726770474
  C        22.7843591696       17.7763234536        8.7116590785
  C        34.4215910508       17.2292242290       13.8844771430
  C        35.7151255016       17.1752714235       13.1425285153
  C        35.9182944649       16.2090775221       12.1440637541
  C        37.1032213677       16.1929024789       11.4131448151
  C        38.1159888862       17.1400125897       11.6636630045
  C        37.9147244641       18.0847173055       12.6872293092
  C        36.7270811286       18.1072492743       13.4145190628
  C        39.3743829026       17.1456458616       10.8851994308
  C        39.3733805897       17.1703689090        9.4643916598
  C        38.1690631902       17.3082822398        8.7048546863
  C        20.3328213106       17.9212667645        8.7643302069
  C        20.3553672751       17.9378358826       11.5774771699
  C        34.4750355645       17.2506271052        2.1865590958
  C        35.7778956428       17.1761871486        2.9101476713
  C        35.9958604007       16.1906529037        3.8853705151
  C        37.1814093037       16.1775597844        4.6152553117
  C        38.1775621195       17.1468952482        4.3858437976
  C        37.9661859579       18.1059996754        3.3785422460
  C        36.7776252211       18.1260374526        2.6539632405
  C        39.4247245597       17.1679189660        5.1800321700
  C        39.3991621298       17.1824698614        6.6001655876
  C        38.1807872315       17.3112269255        7.3386245949
  C        35.1704554225       26.6277230694        7.2934263036
  C        35.1835309738       26.6505463638        4.4847272484
  C        26.5690698687       17.8226136580        2.3326586592
  C        25.2571715966       17.8661757383        3.0406950699
  C        24.9958526709       18.8653189303        3.9904103813
  C        23.7775763579       18.8901885690        4.6629298961
  C        22.7917298552       17.9155783356        4.4095141342
  C        23.0472961586       16.9417779552        3.4269670575
  C        24.2660764460       16.9151119378        2.7523480481
  C        21.5283719095       17.8950305796        5.1824292308
  C        21.5529824603       17.8832176965        6.6039787372
  C        22.7715434892       17.7657156339        7.3455007851
  C        14.0469508245       17.8283231656        2.2946682683
  C        15.3505975435       17.8831774103        3.0211827252
  C        15.6074729845       18.8837021049        3.9716739072
  C        16.8162133167       18.9020905930        4.6651442163
  C        17.8027537926       17.9228631156        4.4305006806
  C        17.5505971013       16.9467430116        3.4478943746
  C        16.3413395155       16.9235987707        2.7560913894
  C        19.0721799885       17.9036798231        5.1990865488
  C        19.0716197764       17.8990324940        6.6216312064
  C        17.8650960115       17.7998777420        7.3835143370
  C        46.8074825943       17.2202766874        2.1646170845
  C        45.5193171810       17.1635995380        2.9129568144
  C        45.3143127721       16.1917563247        3.9041583899
  C        44.1343086462       16.1806623441        4.6428925788
  C        43.1312676120       17.1416479418        4.4107334526
  C        43.3337689826       18.0934525747        3.3934854222
  C        44.5144834392       18.1086045500        2.6563241263
  C        41.8784915228       17.1593112079        5.1979753993
  C        41.8822678779       17.1613718710        6.6196120905
  C        43.0898218498       17.2531225385        7.3809942353
  C        20.3187448410       17.9092897910        7.3294472216
  C        20.2960391820       17.8851483703        4.5162611064
  C        46.7847452598       17.2306612706       13.8853859528
  C        45.4791958645       17.1241254179       13.1731060283
  C        45.2613383607       16.1317178101       12.2055878833
  C        44.0724660161       16.1078957674       11.4804145328
  C        43.0724614120       17.0736390212       11.7059830291
  C        43.2795233860       18.0337846703       12.7139031494
  C        44.4697286264       18.0642766811       13.4335784820
  C        41.8279985828       17.1041453860       10.9064691458
  C        41.8566247378       17.1310379348        9.4856260450
  C        43.0776752031       17.2359121108        8.7475062167
  C        46.1533022219       26.6371115385        8.7211715043
  C        46.1623965171       26.6560269724       11.5308062273
  C        14.0464191547       17.8319517268       13.7036230531
  C        15.3678212551       17.9060618544       13.0139262077
  C        15.6418646115       18.9199095770       12.0836833167
  C        16.8714274365       18.9564753467       11.4297210324
  C        17.8551932561       17.9785109722       11.6799915664
  C        17.5881244186       16.9940389690       12.6487858985
  C        16.3605868856       16.9568056326       13.3062166691
  C        19.1226383042       17.9518606859       10.9109157691
  C        19.0979486796       17.9227726816        9.4894838848
  C        17.8779584462       17.8108289120        8.7495064234
  C        28.7972784016       14.0926585096        2.3929372739
  C        28.1856624720       12.9221345354        3.0829067303
  C        28.9057998314       12.1935877641        4.0411581211
  C        28.3088642540       11.1155459417        4.6892442605
  C        26.9775323752       10.7468976255        4.4084399094
  C        26.2789181230       11.4589885225        3.4169060840
  C        26.8742115091       12.5350924689        2.7639291056
  C        26.3110351073        9.6659465107        5.1696190582
  C        26.3000467763        9.6931085180        6.5905755641
  C        26.7994482004       10.8092813679        7.3343603833
  C        32.1806628438       21.2411838347        2.1514945481
  C        32.7761280571       22.4055586944        2.8678710609
  C        32.0404869352       23.0633962508        3.8655059593
  C        32.6140750847       24.1019498271        4.5918014921
  C        33.9402670131       24.5062729124        4.3454354284
  C        34.6584027647       23.8653562572        3.3180207928
  C        34.0866829997       22.8232959997        2.5914015535
  C        34.5744513004       25.5779556187        5.1452180877
  C        34.5766581259       25.5441123711        6.5669262102
  C        34.0739970300       24.4267336231        7.3059027800
  C        25.6958005004        8.6135661902        7.3113985902
  C        25.6755169258        8.6131855518        4.4983004416
  C        32.1152282251       21.2362848654       13.8836557302
  C        32.7107594152       22.3821412723       13.1393829854
  C        31.9846390344       23.0319883001       12.1290814700
  C        32.5713481672       24.0556939040       11.3897565612
  C        33.8969740539       24.4590212684       11.6417704957
  C        34.6059051837       23.8226483561       12.6790330889
  C        34.0248271557       22.7927207148       13.4135865572
  C        34.5407406200       25.5355659723       10.8552815368
  C        34.5576761475       25.5235107615        9.4332814408
  C        34.0631033534       24.4177290421        8.6725958533
  C        40.6211234534       17.1415552631        8.7591751322
  C        40.5954267629       17.1278437630       11.5685573184
  C        28.7308857130       14.1060824316       13.7756988180
  C        28.1281124315       12.9562164230       13.0372737850
  C        28.8708893852       12.2480657597       12.0795137126
  C        28.2956010195       11.1801793431       11.3942715933
  C        26.9625799730       10.7936472744       11.6415328878
  C        26.2374020189       11.4905020465       12.6256821318
  C        26.8112482935       12.5572712663       13.3143414767
  C        26.3247111690        9.6946774235       10.8774392750
  C        26.3099037238        9.7067950582        9.4561466040
  C        26.8025784556       10.8164413488        8.6998639424
  C        18.1353855147        3.1809154964        2.3221905536
  C        17.4060275445        4.2781784797        3.0207898354
  C        16.3906007813        3.9997645702        3.9486065489
  C        15.7428552646        5.0397126878        4.6121471709
  C        16.0944337937        6.3834721572        4.3721910424
  C        17.0834351989        6.6530444260        3.4080427358
  C        17.7325326533        5.6157296342        2.7429536957
  C        15.4701858614        7.4911879683        5.1352746673
  C        15.4854998769        7.4905466604        6.5569947160
  C        16.1870288460        6.4969322337        7.3101876046
  C        42.9459224019       31.8595213927        2.0779942431
  C        43.6463153601       30.7718594358        2.8220179342
  C        44.5920554689       31.0931290940        3.8078922392
  C        45.1976981375       30.0875539080        4.5555893888
  C        44.8710390183       28.7345340590        4.3408382272
  C        43.9449830800       28.4202409317        3.3278340238
  C        43.3362080361       29.4254152093        2.5798012906
  C        45.4885993527       27.6552011755        5.1440214367
  C        45.4927289656       27.6807705712        6.5657155805
  C        44.8055166392       28.6887414696        7.3123298630
  C        14.8566111338        8.5630864069        7.2693585481
  C        14.8750089505        8.5630259098        4.4566863366
  C        42.9462209239       31.9615484395       13.8036495808
  C        43.6916835371       30.8853695105       13.0903876953
  C        44.6563507584       31.1912386533       12.1181676079
  C        45.2778597438       30.1716338745       11.4004410702
  C        44.9539079998       28.8213533336       11.6379946987
  C        44.0202641809       28.5237077886       12.6486149913
  C        43.3920127689       29.5405029366       13.3607666152
  C        45.5629685635       27.7239464655       10.8527501528
  C        45.5331937467       27.7171921161        9.4314544273
  C        44.8267682606       28.7073625397        8.6785147632
  C        35.1619252731       26.6163865397        8.7279849736
  C        35.1479342429       26.5964818111       11.5374558964
  C        18.1485277013        3.2469176703       13.7015462547
  C        17.4297235929        4.3437633632       12.9924399688
  C        16.4148467870        4.0523974363       12.0685394634
  C        15.7664970181        5.0829747727       11.3931006093
  C        16.1207692186        6.4282594583       11.6161466467
  C        17.1117150534        6.7117332943       12.5738313198
  C        17.7594253770        5.6828680530       13.2536294576
  C        15.4903733524        7.5239636353       10.8436360235
  C        15.4964234856        7.5074294663        9.4224934008
  C        16.1931739010        6.5057243073        8.6757910474
  H        10.6724567742       12.4657964487       11.8995147589
  H        11.6946782886       10.5509744943       10.6576296541
  H        15.3917946665       11.1687866340       12.7669290120
  H        14.3514800349       13.0716527398       14.0120334029
  H        13.3766320266       11.6313857200        9.1962398552
  H        50.3231273618       22.7487454639       11.9818825080
  H        49.3199520950       24.6232122850       10.6760002205
  H        45.6423670430       24.1611895945       12.8586208150
  H        46.6633504913       22.2902182813       14.1668614670
  H        47.6305971043       23.5761480260        9.2410876577
  H        14.8717784648        8.5881377046       12.6034965712
  H        50.2873068027       22.7028838772        4.0653349852
  H        49.2693213750       24.5757399952        5.3652924649
  H        45.6106551823       24.1093366848        3.1510799340
  H        46.6528437038       22.2540171654        1.8367463814
  H        47.6085212335       23.5520860376        6.8019677071
  H        40.6636561611       17.1385553747        3.4288596134
  H        48.6871759181       14.0950608061       15.7949581760
  H        10.6814238324       12.4664875111        4.0982633426
  H        11.6897540078       10.5245786658        5.3019621634
  H        15.3939117110       11.1594106357        3.2111309632
  H        14.3654638248       13.0878595140        1.9959531432
  H        13.3763818115       11.6223832465        6.7582314523
  H        47.9304471256       14.2180770507        1.7162899561
  H        47.7801079370       14.3738065088       14.4901524735
  H        49.0851599227       18.5531843051        2.8727601017
  H        10.4164495052       14.1342761149        0.0038018515
  H        24.4905462337        3.0307778406       11.9161432934
  H        25.6360892260        4.8886027701       10.6940244591
  H        23.2583717281        7.7570898457       12.8428816696
  H        22.1313081996        5.8894301743       14.0667901606
  H        23.8246410964        5.7904664069        9.2667039468
  H        36.3850251506       32.1807268958       11.9520545973
  H        35.2727047494       30.3499554096       10.6695945316
  H        37.5327265205       27.4372094881       12.8852306032
  H        38.6255010788       29.2803672469       14.1760103811
  H        37.0504666438       29.4385664707        9.2615215544
  H        25.7538429772        8.6171666793       12.6465323090
  H        36.4604880587       32.2372671649        4.1218588179
  H        35.3532895458       30.4153684928        5.4160947691
  H        37.5262628574       27.4856120754        3.1353692059
  H        38.6090004536       29.3190597722        1.8292854975
  H        37.0634111003       29.4587576571        6.8230894031
  H        46.1093141210       26.5876005298        3.3906872656
  H        44.6681058420       35.1161030530       15.8088406367
  H        24.4367004319        3.0387058786        4.0912059662
  H        25.5685313967        4.8769690071        5.3434437313
  H        23.1659353307        7.7673048927        3.2528149292
  H        22.0460545204        5.9169239917        2.0002853594
  H        23.7982000178        5.7895797599        6.8285243506
  H        44.9535017356       34.3901480367        1.7000960831
  H        44.9012067310       34.2066113087       14.4854808176
  H        40.6654147381       33.2088008500        2.8580769429
  H        23.1506676423        1.9576595016        0.0103604457
  H        25.8371099859       19.6276627443       11.8924649807
  H        23.6659024793       19.6796573712       10.6584276435
  H        22.3406231357       16.2328635314       12.8646632678
  H        24.5131320441       16.2003168078       14.0980495097
  H        23.7251742293       17.6575616406        9.2410917672
  H        35.1350144253       15.4770491567       11.9578796870
  H        37.2633452043       15.4347679356       10.6493748524
  H        38.6893869652       18.8231719427       12.8834882753
  H        36.5541477731       18.8503867779       14.1896358676
  H        37.2317928903       17.4437975240        9.2366477704
  H        20.3623979141       17.9829251548       12.6651392818
  H        35.2210907061       15.4469436797        4.0613200801
  H        37.3523775190       15.4103977992        5.3675738894
  H        38.7301788634       18.8594256233        3.1980454134
  H        36.5906759311       18.8841217165        1.8969978783
  H        37.2527204735       17.4472246621        6.7908635725
  H        35.1469749301       26.6805016711        3.3974011474
  H        28.5132094164       21.0882045239       15.9665171473
  H        25.7589905681       19.6149234565        4.1859884759
  H        23.5755227781       19.6689977993        5.3950915263
  H        22.2941724741       16.1827821838        3.2254558188
  H        24.4797267032       16.1516674788        2.0081424554
  H        23.7026790156       17.6390239787        6.8012818500
  H        28.9837005542       21.7270981769        1.7814782092
  H        29.1326951315       21.7597567886       14.6031082403
  H        32.1144093964       18.5858084295        2.9838071017
  H        27.4007897853       19.0695574351        0.0965131213
  H        14.8495541833       19.6428494334        4.1516597129
  H        17.0114792317       19.6843959589        5.3954866025
  H        18.3016824685       16.1828852584        3.2572690383
  H        16.1355971339       16.1564888998        2.0133540627
  H        16.9223681442       17.6835128700        6.8568150862
  H        46.0964992379       15.4590204097        4.0882987263
  H        43.9743574553       15.4193772022        5.4032398115
  H        42.5666062247       18.8432165151        3.2115560834
  H        44.6890419325       18.8574102669        1.8873267502
  H        44.0326313836       17.3678363547        6.8537579439
  H        20.2895889752       17.9179080050        3.4282225052
  H        46.0396128943       15.3942967260       12.0226080548
  H        43.9068088794       15.3387122511       10.7291877854
  H        42.5119761059       18.7833046283       12.8952312556
  H        44.6519502678       18.8257081413       14.1879552772
  H        44.0111189933       17.3365341128        9.2936783069
  H        46.1992712459       26.6826364953       12.6182513300
  H        52.7414924978       21.0628462573        0.1998659544
  H        14.8814431983       19.6731469401       11.8896127119
  H        17.0826545065       19.7455847384       10.7112480308
  H        18.3389042825       16.2326911614       12.8502211208
  H        16.1395413688       16.1834735243       14.0378335911
  H        16.9448610907       17.7024625887        9.2941651737
  H        52.3236750086       21.6737024533       14.2887362890
  H        52.0141915379       21.7028082497        1.5009812782
  H        49.0681316490       18.6079852301       13.1987229842
  H        13.2479702995       19.0159650277       15.9724051582
  H        29.9283381501       12.4880778807        4.2663175301
  H        28.8691394696       10.5464328980        5.4278783423
  H        25.2498321273       11.1849794369        3.1938801858
  H        26.3333705828       13.1061390027        2.0132467041
  H        27.1538384005       11.6802872097        6.7913939703
  H        31.0253644118       22.7325645688        4.0700267745
  H        32.0385393764       24.6112807139        5.3615115842
  H        35.6850492149       24.1683579423        3.1229004338
  H        34.6466335906       22.3027745985        1.8179442638
  H        33.7160221795       23.5569516068        6.7623683526
  H        25.7038046856        8.5929388819        3.4102825321
  H        30.9641139366       22.7173241220       11.9236042233
  H        32.0014234580       24.5583812652       10.6115389604
  H        35.6322350210       24.1235434057       12.8788816818
  H        34.5773061365       22.2782500785       14.1964031222
  H        33.6965486293       23.5410912825        9.1992307543
  H        40.5850460391       17.0802926358       12.6558422089
  H        32.5286775668       14.1368154175        0.3445947655
  H        29.9022263887       12.5408315653       11.8935456124
  H        28.8792097762       10.6236860283       10.6638043848
  H        25.2057701225       11.2057959842       12.8221564197
  H        26.2489388523       13.1094757935       14.0636231076
  H        27.1563551315       11.6938305280        9.2332646950
  H        33.2816275866       14.1620107227       14.4122268418
  H        33.4060038396       14.4243219636        1.6763958102
  H        32.1190703451       18.5486666993       13.1706107400
  H        30.2266631076       14.1898414320        0.0763832015
  H        16.1187567907        2.9632417485        4.1352273073
  H        14.9536015400        4.8202368627        5.3279948172
  H        17.3655322700        7.6859520886        3.2146206906
  H        18.5142139299        5.8184156640        2.0147375962
  H        16.7535477991        5.7395570405        6.7767039543
  H        44.8285001348       32.1401990786        3.9819441483
  H        45.9377184881       30.3412552732        5.3114036034
  H        43.6820525564       27.3782023905        3.1578954035
  H        42.5993375213       29.1901501234        1.8153555775
  H        44.2301220292       29.4364599784        6.7739940745
  H        14.8511726170        8.5462336402        3.3684690611
  H        44.9000136488       32.2339091937       11.9268248414
  H        46.0248559993       30.4128321758       10.6472828130
  H        43.7631321701       27.4839985642       12.8400520714
  H        42.6453645334       29.3177631654       14.1190846765
  H        44.2681700498       29.4701697192        9.2131176243
  H        35.1030077953       26.6116845202       12.6247725236
  H        36.6048699261       35.1339108035        0.1858822931
  H        16.1440384652        3.0127883270       11.8985723142
  H        14.9744089294        4.8560141404       10.6827879619
  H        17.3948234543        7.7472495923       12.7510648896
  H        18.5419424008        5.8933754159       13.9787596045
  H        16.7645373065        5.7554403117        9.2142357397
  H        36.2779401654       34.4828564176       14.2679434012
  H        36.3800223658       34.2095753174        1.5052864280
  H        40.5801714168       33.2025536030       13.1484305565
  H        17.4706830238        1.9471162126       15.9690243843
  H        28.7364443620       19.0272810604        4.3154839554
  H        30.2256517140       20.0310555522       11.8957164734
  H        32.0306034288       16.4095181609       11.2878806577
  H        30.7718015007       15.4326936470        4.3157696289
  H        28.0953904150       17.3901106464        6.8024329767
  H        28.9901351893       15.3056321546        6.5143734662
  H        31.6358689122       19.5984552201        9.4314292407
  H        32.6183318374       17.5016264278        9.0308713133
  H        28.8997506924       16.7139115495        8.8463751022
  H        18.8531324047        0.8688650486        4.3404887860
  H        40.5276566587       35.2292228961       11.9469428488
  H        42.3240399187       34.4188009216       11.5856570925
  H        22.0878583267        0.6920004400        4.3566393633
  H        11.5967444470       18.7131509518        4.3878857871
  H        52.2651422559       18.4315909087       11.6719377987
  H        49.2552842542       16.4771170418       11.5792458066
  H        10.1504475726       15.7982478938        4.2977159589
  H        50.8505676950       17.6925171735       11.9490609708
  H        10.0463618808       17.3946191258        4.0569649837
  H        20.2143252680        0.0022129068        4.0471909779
  H        39.1833925944       36.1243890628       11.6812606627
 Ni        29.8882095571       18.2219976757       10.4908500404
 Ni        31.1949516017       16.0689910365        7.4980633253
 Ni        29.9701296612       18.9249290609        7.8288013581
 Ni        29.8889464733       17.3020503686        5.2427532703
  O        10.6499975881       14.3651568971       13.4807558400
  O        12.6131873546       14.6575044721       14.5788259699
  O        49.1479675603       16.8458859599       15.9845518549
  O        50.3503080411       20.9355913358       13.6428525226
  O        48.3486050249       20.5932681100       14.6607146835
  O        11.0518940623       17.0538093518       14.4956645968
  O        50.3210216161       20.8815139244        2.4120316092
  O        48.3467514246       20.5866469292        1.3323259211
  O        49.5439363390       18.2484371196        2.0732430386
  O        12.3592248334       18.6247546314        0.0048309106
  O        48.6932597447       14.1486400768       14.7461976042
  O         8.2099510853       14.2104402074        1.3275921164
  O        10.7354959136       14.5068540190        2.6695133617
  O        12.5719051718       14.5828673614        1.3336548842
  O        22.8453020495        2.0443317948       13.4818676413
  O        21.6062118609        3.5930738853       14.5839404720
  O        42.0582239698       34.1373817671       15.9737748311
  O        37.9820482858       33.1378170177       13.5674871863
  O        39.2187620649       31.5766759280       14.6623436897
  O        20.3084209882        1.0396941051       14.4969642891
  O        38.0246653089       33.1857892745        2.4202028755
  O        39.2194391331       31.5841252072        1.3311078008
  O        40.6523125284       33.7694331216        2.0654082545
  O        18.2554899971        1.3761072107        0.0018934319
  O        44.6221788196       35.1005331727       14.7536084877
  O        24.2053718915        0.0000427394        1.3259025450
  O        22.7530290555        2.0576478206        2.5889259495
  O        21.6246152249        3.5962431813        1.3480425863
  O        27.4926047704       18.7458799608       13.4936396770
  O        26.7670867790       16.9281335722       14.6538868312
  O        30.6685466448       19.4073733126        0.0740060215
  O        33.5485988884       16.3406173740       13.5883486251
  O        34.2742163460       18.1715366137       14.7335314234
  O        29.5781775201       17.0654758395       14.5681927412
  O        33.6160576421       16.3334729917        2.4230075489
  O        34.3047300475       18.2483533385        1.4109259902
  O        31.6522041891       18.3115816356        2.1754130756
  O        30.3269192560       15.1561215695        0.0908785609
  O        28.5534032238       21.0348132035       14.8987072854
  O        28.5137409490       20.9576638189        1.4176626760
  O        27.4572136466       18.6766438748        2.6659526051
  O        26.6943128459       16.9290525614        1.4192274966
  O        13.1488892064       18.6926851159        2.5927299381
  O        13.9192933685       16.9161948359        1.4102193053
  O        50.5966185575       19.3502847321        0.0254208606
  O        47.6836758691       16.3268074956        2.4223170414
  O        46.9523233976       18.1758995446        1.3289663499
  O        11.0700927741       17.0155017605        1.4946569456
  O        47.6750853512       16.3356465753       13.6477361183
  O        46.9267125842       18.2359177157       14.6595522133
  O        49.5688679099       18.3177428516       13.9771094801
  O        10.3187879582       15.1000984458        0.0021432232
  O        52.6707906900       21.0278592669        1.2469044130
  O        12.1468544266       20.8911962614       14.6681764794
  O        13.1084712303       18.6134884337       13.3203996725
  O        13.9572972576       16.9870763462       14.6602272706
  O        29.9864646190       14.4378236008        2.7268905917
  O        28.0857179173       14.6551670969        1.4943358030
  O        32.1431013400       16.8534737476        0.0886436151
  O        30.9671215225       20.9503062350        2.4173347914
  O        32.9478469547       20.6005852020        1.3453556984
  O        29.5697941902       17.0765112639        1.5836511085
  O        30.8836810694       20.9570626588       13.6628753671
  O        32.8838974231       20.5841120885       14.6644597476
  O        31.6771318279       18.2475856266       13.9807567106
  O        28.2886966753       18.6764427659        0.0866205215
  O        32.4961460866       14.2093372612        1.3959434245
  O        32.4033024823       14.2167058995       14.8237487546
  O        29.8850497412       14.5160230957       13.4078415849
  O        28.0463325104       14.5861930008       14.7433539308
  O        17.8892354788        1.9666461253        2.6679334007
  O        18.9562921745        3.5271533203        1.4130670814
  O        39.1686588948       34.1389067756        0.0023156224
  O        43.2803172417       33.0589558626        2.3368396906
  O        42.0346792500       31.5063649541        1.2467349495
  O        20.3176596813        1.0368156140        1.4852069804
  O        43.2761266405       33.1825364252       13.5699417835
  O        42.0054403172       31.5840364816       14.5779958057
  O        40.5790725573       33.7750279486       13.9306860754
  O        22.3673251470        1.3847595131        0.0029715361
  O        36.6728120647       35.0997742935        1.2384271703
  O        16.4455525922        0.0642368190       14.6631650178
  O        17.9364594744        2.0433825738       13.3213058635
  O        18.9191047329        3.5931397374       14.6608252890
  O        29.7755986753       19.2023957327       12.1453729462
  O        29.6885762933       19.0398207848        4.0802306091
  O        31.4293378861       16.0444710439       11.9944589841
  O        31.3459143410       16.1971983989        4.0788425640
  O        32.9172914790       17.0038043747        9.8466960116
  O        29.8141763861       16.7628920168        9.1703002557
  O        29.8654721875       15.5323779951        6.1627147698
  O        31.7763000946       17.9539998872        7.5800675340
  O        30.6721638454       19.7200690382        9.4897531952
  O        28.5935022658       18.1672186837        6.5002329336
  O        39.4567319118       35.2438577479       11.9968685590
  O        19.1411699305        0.0044830059        3.9956778428
  O        41.9697237468       35.1727797861       12.0821594634
  O        21.6913277591       -0.0693485807        3.9010075895
  O        51.3652740732       18.6143372509       12.0002574092
  O        10.7510917302       18.7470794853        3.9100092424
  O        50.0795807003       16.4127356353       12.0866455111
  O         9.5244753918       16.4830970216        3.9963204757
 Zr         9.2980522527       16.0527849576       14.1774693457
 Zr        49.8376496544       16.0065948811        1.7512554777
 Zr        22.0730126682        0.0298731869       14.1839804482
 Zr        42.4606729184       35.1532082477        1.8059391461
 Zr        29.5886382867       19.1110404617       14.2686892909
 Zr        29.5793489318       19.1852940701        1.8848751002
 Zr        11.0390684189       19.0519958194        1.8329836975
 Zr        11.0450799085       19.1548736552       14.2455512401
 Zr        31.3408239880       16.1055663291        1.9152845045
 Zr        31.4098890821       16.0193454732       14.3243256490
 Zr        18.6008429806       -0.0017156631        1.7684914340
 Zr        18.5061165531       -0.0080718817       14.2086465682
 Zr        12.3034600914       16.3236985295       15.9851755540
 Zr        48.6181485128       18.8336928188        0.0150275219
 Zr        20.3150585580        2.4732239313       15.9853108231
 Zr        40.6431140110       32.6868105656       15.9732609064
 Zr        28.3446618152       16.3528555578        0.0845130404
 Zr        32.6189654440       18.8507712948        0.0605919684
  H        32.1609940383       18.2542291681        6.7394511367
  O        30.9660126338       14.4971657938        9.2430489475
  H        30.3266918412       15.2655466768        9.4164521421
  H        30.4207430484       13.7352012976        8.9898794143
  O        32.7368690316       15.3948330359        6.2330951787
  H        33.5617051882       15.8877644007        6.3750911774
  H        32.3737391013       15.7269516165        5.3414925338
  O        27.8821087628       20.1513999575        8.1578305319
  H        27.7223869192       19.4231754715        7.5046275096
  H        27.7511258240       19.7635958099        9.0423426230
  O        30.3399104035       20.4367333594        6.3267494969
  H        30.1334614828       20.0196379747        5.4328024036
  H        29.6205702190       21.0654918809        6.5055369615
  H        30.9372021733       15.3030484037       11.5936775204
  H        33.8862326893       17.0388703269        9.8696980849
