     586
 i =       26, E =     -4847.7014378444
  C        11.8584064994       14.0539339769       13.7364002139
  C        12.4560713912       12.8906209453       13.0180876257
  C        11.7044423435       12.1717418315       12.0764148438
  C        12.2808274677       11.1094577498       11.3840881407
  C        13.6213727826       10.7397140904       11.6118958738
  C        14.3545085524       11.4432753309       12.5853660148
  C        13.7815659094       12.5083068122       13.2767907760
  C        14.2610347072        9.6490588981       10.8385445642
  C        14.2567151966        9.6570327155        9.4168281965
  C        13.7434215017       10.7591035519        8.6629179257
  C        49.1265208302       21.2333059811       13.8745290471
  C        48.5500642461       22.4012842949       13.1476600745
  C        49.3000151267       23.0684349846       12.1664201864
  C        48.7330823700       24.1074852967       11.4332010844
  C        47.4026186755       24.5094331911       11.6620636052
  C        46.6717500550       23.8605919821       12.6757203610
  C        47.2340603652       22.8155568458       13.4049053494
  C        46.7723651056       25.5869684952       10.8648935827
  C        46.7619951680       25.5577552842        9.4428786090
  C        47.2614677874       24.4426520948        8.6994872674
  C        14.8607327953        8.5707214903        8.7035651814
  C        14.8916663984        8.5970031841       11.5151707160
  C        49.1130734444       21.2034173565        2.1504626549
  C        48.5280491090       22.3648798346        2.8773869242
  C        49.2671341113       23.0254097509        3.8706035661
  C        48.6908074773       24.0598836975        4.6020819493
  C        47.3604930831       24.4570434385        4.3635941497
  C        46.6402353840       23.8122183516        3.3398383294
  C        47.2136501094       22.7761720266        2.6082295075
  C        46.7220716997       25.5318851497        5.1545116403
  C        46.7342133461       25.5285479675        6.5764410705
  C        47.2492529772       24.4293577681        7.3327521933
  C        40.6296685107       17.1421350676        7.3278366361
  C        40.6549226339       17.1944097929        4.5163377035
  C        11.8828701202       14.0870146787        2.2906585072
  C        12.4722567636       12.9106749486        2.9947054358
  C        11.7148473225       12.1775377458        3.9208690808
  C        12.2814403814       11.0950245701        4.5892964770
  C        13.6202895428       10.7214846755        4.3575582862
  C        14.3582557059       11.4370739548        3.3967976490
  C        13.7927555151       12.5182718009        2.7241603042
  C        14.2539851237        9.6247226052        5.1279404445
  C        14.2529950377        9.6447346545        6.5497905063
  C        13.7429350319       10.7536005455        7.2968696499
  C        22.5123741268        3.2443679139       13.7485300359
  C        23.2297184362        4.3497034655       13.0495204450
  C        24.2267255185        4.0677626359       12.1039880553
  C        24.8570363108        5.1058286101       11.4227227918
  C        24.5068270608        6.4485065303       11.6672032976
  C        23.5374938000        6.7222610665       12.6494227984
  C        22.9024766556        5.6855925318       13.3290360858
  C        25.1170195558        7.5522472675       10.8907821749
  C        25.0879511771        7.5444342285        9.4684101110
  C        24.3803833057        6.5483096581        8.7241210844
  C        38.3036590755       31.9292925800       13.8436670552
  C        37.5780010431       30.8386725563       13.1341084276
  C        36.6226356757       31.1386045530       12.1509345315
  C        36.0115524478       30.1152643177       11.4321850712
  C        36.3406151977       28.7671968294       11.6756555719
  C        37.2654117784       28.4749699219       12.6959376086
  C        37.8812899646       29.4968724370       13.4128502544
  C        35.7443071781       27.6732756081       10.8787624837
  C        35.7747151481       27.6886602695        9.4567766628
  C        36.4800277634       28.6908056590        8.7200948016
  C        25.7133701041        8.6113301053        8.7458381554
  C        25.7189378947        8.6256871788       11.5589215589
  C        38.3285157560       31.9621879967        2.1603650782
  C        37.6092151291       30.8883208757        2.9008159501
  C        36.6845172811       31.1940195011        3.9112279087
  C        36.0799584663       30.1730698046        4.6414020790
  C        36.3848268313       28.8213281247        4.3837365835
  C        37.2850897270       28.5258930602        3.3415345433
  C        37.8926007482       29.5431028612        2.6132509047
  C        35.7830669186       27.7202605961        5.1678606897
  C        35.7946976334       27.7126261935        6.5904990035
  C        36.4892025904       28.7023847118        7.3529982330
  C        46.1365415751       26.6214519673        7.2865486687
  C        46.0873587516       26.5798135555        4.4785334222
  C        22.4601287767        3.2552033749        2.2627022453
  C        23.1543631462        4.3641005881        2.9862751367
  C        24.1570621200        4.0774377523        3.9261421825
  C        24.7846309526        5.1070055082        4.6232777060
  C        24.4297752141        6.4527294368        4.4020705473
  C        23.4499213055        6.7329580157        3.4309151652
  C        22.8175221340        5.7033887847        2.7348214373
  C        25.0618714102        7.5500920355        5.1755136906
  C        25.0593560654        7.5431450563        6.5988104071
  C        24.3657453218        6.5483125765        7.3570394479
  C        26.6182711053       17.8639921546       13.7876510559
  C        25.3165177997       17.8990172448       13.0537742877
  C        25.0589708319       18.8969041137       12.1000812504
  C        23.8474227898       18.9164329771       11.4113678491
  C        22.8535715045       17.9474858084       11.6610326472
  C        23.1074438882       16.9738166063       12.6456650179
  C        24.3202765611       16.9498904555       13.3331413954
  C        21.5803535843       17.9321257692       10.8955750683
  C        21.5795750635       17.9092556165        9.4729293968
  C        22.7846239407       17.7839645467        8.7120592729
  C        34.4071927705       17.2302182394       13.8738382389
  C        35.6899054885       17.1647254258       13.1299597326
  C        35.8991033160       16.2026489624       12.1261233020
  C        37.0880726048       16.1919047021       11.4035499542
  C        38.1077172361       17.1314815460       11.6675706744
  C        37.9006013916       18.0627619064       12.7046989113
  C        36.7080787197       18.0866044495       13.4202919576
  C        39.3652915766       17.1474769813       10.8918812428
  C        39.3657729532       17.1590197677        9.4671396928
  C        38.1649849700       17.2977938860        8.7070238723
  C        20.3327761692       17.9253729226        8.7643825522
  C        20.3549821214       17.9365549007       11.5774300239
  C        34.4715460059       17.2514494106        2.1940846343
  C        35.7749360472       17.1788203104        2.9086941953
  C        35.9943315797       16.1971385936        3.8883267448
  C        37.1789744058       16.1874913286        4.6177805626
  C        38.1787575478       17.1535134184        4.3842528546
  C        37.9650986791       18.1088279633        3.3725065545
  C        36.7769852344       18.1261357553        2.6485355693
  C        39.4234686158       17.1737860122        5.1784873872
  C        39.3947492758       17.1754192370        6.6013124978
  C        38.1782693953       17.3032158120        7.3384285963
  C        35.1654155735       26.6326657198        7.2943816321
  C        35.1944268006       26.6490797007        4.4850758453
  C        26.5701226513       17.8225067435        2.3393480604
  C        25.2558969940       17.8720559600        3.0399181530
  C        24.9961256392       18.8695513786        3.9921517228
  C        23.7765521599       18.8969753934        4.6618046561
  C        22.7915584898       17.9205985385        4.4107600282
  C        23.0472469920       16.9462641541        3.4288516677
  C        24.2671023677       16.9172970659        2.7564857645
  C        21.5279329384       17.9018834436        5.1827354885
  C        21.5531407220       17.8903773954        6.6041595390
  C        22.7718402843       17.7742882394        7.3458598889
  C        14.0460173678       17.8283721229        2.2941870351
  C        15.3509558566       17.8846353147        3.0201784938
  C        15.6071069244       18.8855819719        3.9701654054
  C        16.8158210530       18.9049736189        4.6638573254
  C        17.8027439173       17.9262097385        4.4296160557
  C        17.5512392770       16.9494422074        3.4475728807
  C        16.3418957067       16.9253549125        2.7557123137
  C        19.0720163967       17.9081449635        5.1987423669
  C        19.0719034437       17.9029741794        6.6213507589
  C        17.8652291358       17.8024332441        7.3827891132
  C        46.8056514631       17.2198913343        2.1652835532
  C        45.5191883695       17.1644157348        2.9124102211
  C        45.3122613545       16.1944162760        3.9059507724
  C        44.1331414481       16.1866434135        4.6452910267
  C        43.1286021052       17.1468826501        4.4113948125
  C        43.3328000049       18.0955016647        3.3903036229
  C        44.5134381571       18.1086465515        2.6536819110
  C        41.8768335354       17.1661603622        5.1977701055
  C        41.8787152589       17.1555364819        6.6223126425
  C        43.0830312348       17.2463518681        7.3841390266
  C        20.3189167988       17.9151340726        7.3294942922
  C        20.2958990077       17.8902663088        4.5160700200
  C        46.7826407411       17.2310633204       13.8846997163
  C        45.4787329824       17.1277464046       13.1737283186
  C        45.2552876472       16.1361452455       12.2056035611
  C        44.0655041082       16.1167165519       11.4827227499
  C        43.0653149888       17.0831689825       11.7113941980
  C        43.2787996075       18.0421268542       12.7201060341
  C        44.4706190246       18.0695954340       13.4365692387
  C        41.8205383931       17.1147443313       10.9143005635
  C        41.8504466068       17.1270751411        9.4899548719
  C        43.0692497229       17.2304014931        8.7528915526
  C        46.1541969760       26.6378255952        8.7211471991
  C        46.1616449023       26.6556227277       11.5309683135
  C        14.0454385483       17.8317207040       13.7039853863
  C        15.3673433126       17.9055136377       13.0133714731
  C        15.6409861604       18.9192551193       12.0831418393
  C        16.8704750325       18.9559059779       11.4288387703
  C        17.8543368950       17.9781607469       11.6792970108
  C        17.5874171033       16.9935033144       12.6478356278
  C        16.3599107218       16.9562528325       13.3054566472
  C        19.1221452311       17.9519811615       10.9107236640
  C        19.0977672271       17.9249919775        9.4892252714
  C        17.8780381975       17.8121978281        8.7487771341
  C        28.8006405123       14.0951858028        2.4017493595
  C        28.1923670251       12.9178300764        3.0823790104
  C        28.9151160508       12.1814241798        4.0335334441
  C        28.3178012912       11.1032908320        4.6813031156
  C        26.9819425088       10.7430439575        4.4103681679
  C        26.2808653644       11.4625751735        3.4255478388
  C        26.8748793083       12.5405034074        2.7746633753
  C        26.3155543267        9.6615963477        5.1698944366
  C        26.3094918677        9.6864141827        6.5910939895
  C        26.8156865592       10.7987145541        7.3349987900
  C        32.1772639709       21.2490406311        2.1585223465
  C        32.7752309373       22.4108269106        2.8713304041
  C        32.0365463716       23.0789889390        3.8604420854
  C        32.6143710149       24.1144902834        4.5869670562
  C        33.9438917443       24.5102337070        4.3446774607
  C        34.6642739667       23.8604300101        3.3243588623
  C        34.0895446722       22.8203730054        2.5983669605
  C        34.5788510288       25.5800603390        5.1444626487
  C        34.5741204099       25.5486847720        6.5666167624
  C        34.0685205664       24.4323588451        7.3036992358
  C        25.7024134407        8.6081761629        7.3114280493
  C        25.6744487255        8.6127562440        4.4980616782
  C        32.1133443913       21.2322905102       13.8777064138
  C        32.7057403066       22.3775277416       13.1324803342
  C        31.9789712676       23.0315508394       12.1245258125
  C        32.5649843587       24.0562204547       11.3865282210
  C        33.8917818959       24.4583496336       11.6384767748
  C        34.6003534825       23.8195180773       12.6742210443
  C        34.0204133530       22.7866963772       13.4053457000
  C        34.5345101270       25.5369419510       10.8552788706
  C        34.5492275601       25.5278092659        9.4328120562
  C        34.0560269720       24.4232367754        8.6708420590
  C        40.6149504268       17.1298999597        8.7626803245
  C        40.5878154279       17.1491682627       11.5748604398
  C        28.7158535304       14.0938353373       13.7773753847
  C        28.1250576824       12.9424264924       13.0441069000
  C        28.8715835935       12.2409820384       12.0821827803
  C        28.3024801214       11.1712136979       11.3958066307
  C        26.9694445768       10.7815889777       11.6415075051
  C        26.2414549944       11.4720822047       12.6284363309
  C        26.8070750219       12.5451015258       13.3118023102
  C        26.3347521838        9.6833976366       10.8774104484
  C        26.3230484003        9.6966482899        9.4560062675
  C        26.8198892017       10.8044286108        8.7007928048
  C        18.1351264211        3.1807126594        2.3220765388
  C        17.4062307660        4.2780814927        3.0209705845
  C        16.3904551005        3.9998150737        3.9484476874
  C        15.7428256800        5.0398407642        4.6119783681
  C        16.0945795434        6.3835920644        4.3721870281
  C        17.0837892600        6.6529754888        3.4081816962
  C        17.7327529952        5.6156127116        2.7430539094
  C        15.4704189512        7.4913341772        5.1352723232
  C        15.4858085399        7.4906150537        6.5569738022
  C        16.1871121657        6.4968312018        7.3101661521
  C        42.9458473720       31.8592463368        2.0782393334
  C        43.6463355045       30.7719703049        2.8217437981
  C        44.5917486332       31.0931907056        3.8080898515
  C        45.1973690864       30.0876426212        4.5556671454
  C        44.8712252063       28.7344351095        4.3407029203
  C        43.9454363568       28.4202782860        3.3272978339
  C        43.3365374589       29.4253945010        2.5794071306
  C        45.4887818553       27.6552627720        5.1437600474
  C        45.4934990519       27.6814270010        6.5656369999
  C        44.8063511558       28.6891926722        7.3121850335
  C        14.8570137193        8.5632135850        7.2693332814
  C        14.8750600040        8.5630855079        4.4566902443
  C        42.9463082696       31.9611991155       13.8034154394
  C        43.6918317863       30.8855019783       13.0907422590
  C        44.6561341581       31.1913337449       12.1179496438
  C        45.2775298782       30.1717375562       11.4003347464
  C        44.9540783404       28.8212362768       11.6380779416
  C        44.0207536562       28.5237752347       12.6492016917
  C        43.3923133842       29.5404841542       13.3611388547
  C        45.5630598568       27.7240277599       10.8529601972
  C        45.5340472850       27.7179277398        9.4314329663
  C        44.8275909799       28.7078104123        8.6785530590
  C        35.1542762390       26.6211178092        8.7289117949
  C        35.1442896979       26.5953984845       11.5389161541
  C        18.1482875982        3.2467675366       13.7017496207
  C        17.4300539183        4.3437085242       12.9922170313
  C        16.4148014656        4.0524797667       12.0686882954
  C        15.7665721875        5.0831281157       11.3932398007
  C        16.1209897557        6.4284109620       11.6160967541
  C        17.1121746902        6.7116914972       12.5736073923
  C        17.7597468532        5.6827979599       13.2534828729
  C        15.4906709276        7.5241480039       10.8435905672
  C        15.4967309480        7.5074927007        9.4224662679
  C        16.1932962336        6.5056403908        8.6757745459
  H        10.6723079518       12.4659775717       11.8994637148
  H        11.6944779294       10.5509675889       10.6575949839
  H        15.3915075351       11.1686209819       12.7671753340
  H        14.3507532227       13.0716559285       14.0123510637
  H        13.3759667057       11.6310131269        9.1962852023
  H        50.3226746481       22.7482633292       11.9816638633
  H        49.3194265639       24.6224953988       10.6753501362
  H        45.6421904610       24.1612027425       12.8587541038
  H        46.6629312632       22.2900748880       14.1667530581
  H        47.6293791732       23.5759649182        9.2411017347
  H        14.8716364136        8.5881429748       12.6034726580
  H        50.2871170972       22.7024332664        4.0656013259
  H        49.2690277362       24.5750511781        5.3659004911
  H        45.6107880030       24.1093327412        3.1508308830
  H        46.6527291315       22.2538362914        1.8368500502
  H        47.6073768112       23.5519194417        6.8019398067
  H        40.6634477236       17.1689238549        3.4282744401
  H        48.6867171433       14.0952232365       15.7947057480
  H        10.6813338889       12.4666265916        4.0980965169
  H        11.6895652434       10.5246092244        5.3019177055
  H        15.3937018404       11.1592167184        3.2109178877
  H        14.3648287363       13.0877353913        1.9954890008
  H        13.3757178843       11.6220153049        6.7581665072
  H        47.9294772938       14.2206514950        1.7149291821
  H        47.7802903872       14.3765494737       14.4898407981
  H        49.0820444827       18.5518478321        2.8718169079
  H        10.4150976640       14.1344398491        0.0035500074
  H        24.4848082392        3.0285251299       11.9128336570
  H        25.6298965360        4.8863535314       10.6892914851
  H        23.2581109314        7.7556649487       12.8441540378
  H        22.1317443092        5.8875391175       14.0689493319
  H        23.8176136176        5.7937959009        9.2658906812
  H        36.3844163711       32.1808797731       11.9522715626
  H        35.2707195636       30.3504826389       10.6712095716
  H        37.5270937305       27.4369131221       12.8903093698
  H        38.6221197966       29.2798176419       14.1786470247
  H        37.0462631182       29.4396886136        9.2660635474
  H        25.7532215021        8.6111659938       12.6468495558
  H        36.4614166983       32.2375001593        4.1219266672
  H        35.3581096786       30.4147977672        5.4183717172
  H        37.5317847702       27.4864100440        3.1357536938
  H        38.6115802577       29.3204955295        1.8286419726
  H        37.0636136506       29.4599649438        6.8276954780
  H        46.1083492737       26.5868727144        3.3904808063
  H        44.6678996639       35.1158337234       15.8087783581
  H        24.4352983925        3.0390949478        4.0917914426
  H        25.5661176068        4.8778111568        5.3446283747
  H        23.1641267373        7.7675060327        3.2518927820
  H        22.0449284718        5.9162734505        1.9995769948
  H        23.7916294833        5.7938085590        6.8271025244
  H        44.9522697737       34.3888845275        1.6992786083
  H        44.8999714012       34.2060279672       14.4854422243
  H        40.6655026684       33.2080129918        2.8576876343
  H        23.1508673494        1.9566721042        0.0105142329
  H        25.8252513183       19.6453894025       11.9094893677
  H        23.6530846130       19.6953844573       10.6771086182
  H        22.3532795217       16.2158913258       12.8472922288
  H        24.5263219268       16.1854258367       14.0786583447
  H        23.7253724296       17.6653000062        9.2417231716
  H        35.1230644429       15.4648407588       11.9327526874
  H        37.2519743245       15.4390894919       10.6356560774
  H        38.6762152211       18.7945097788       12.9196598430
  H        36.5318520407       18.8233572586       14.2003615586
  H        37.2274714180       17.4400271176        9.2365229706
  H        20.3610060163       17.9785604596       12.6652232212
  H        35.2185103984       15.4565997396        4.0709683950
  H        37.3512216518       15.4221849614        5.3717128523
  H        38.7295645479       18.8608436228        3.1883288617
  H        36.5899080385       18.8834894266        1.8910327682
  H        37.2510870237       17.4456772901        6.7910337092
  H        35.1648590460       26.6763046352        3.3974451343
  H        28.5064469574       21.0856283561       15.9683044440
  H        25.7586399165       19.6206343922        4.1845185974
  H        23.5733507917       19.6771192985        5.3923353987
  H        22.2940475889       16.1869483707        3.2288556073
  H        24.4798858585       16.1538296928        2.0120860634
  H        23.7030904162       17.6476283162        6.8018195317
  H        28.9820099229       21.7322399508        1.7730214807
  H        29.1492332617       21.7533451672       14.6180571302
  H        32.0793845999       18.5816109353        3.0578374971
  H        27.4034415235       19.0801340532        0.0942085166
  H        14.8484550280       19.6441571115        4.1496021756
  H        17.0103960924       19.6876931408        5.3939422906
  H        18.3025737450       16.1857419215        3.2572917471
  H        16.1361365597       16.1579886179        2.0131951678
  H        16.9228363051       17.6852016155        6.8556198447
  H        46.0928587485       15.4603038291        4.0911600110
  H        43.9730175591       15.4271285264        5.4072925613
  H        42.5667212563       18.8458949485        3.2064921189
  H        44.6883381797       18.8564462497        1.8838090249
  H        44.0267239482       17.3632431746        6.8591176709
  H        20.2896182553       17.9225097652        3.4279885337
  H        46.0307834186       15.3963140591       12.0203993711
  H        43.8974914115       15.3489479508       10.7306273587
  H        42.5146611462       18.7947888390       12.9026577432
  H        44.6565116943       18.8315797245       14.1894291620
  H        44.0026913238       17.3345700684        9.2982343516
  H        46.1979996530       26.6817874475       12.6184458242
  H        52.7406820418       21.0624141181        0.1996795097
  H        14.8799739684       19.6719565923       11.8890949402
  H        17.0811330426       19.7449122028       10.7100605909
  H        18.3380564775       16.2319398876       12.8489619741
  H        16.1385013445       16.1830395605       14.0371207540
  H        16.9450176134       17.7024615534        9.2933055378
  H        52.3208753083       21.6727573553       14.2896773136
  H        52.0116362031       21.7008034593        1.5005782176
  H        49.0649369628       18.6071829703       13.1998976958
  H        13.2468911840       19.0169320382       15.9720874021
  H        29.9442532648       12.4624452199        4.2459846936
  H        28.8803791776       10.5274962948        5.4131033318
  H        25.2487166542       11.1943722109        3.2091052552
  H        26.3303635506       13.1175343048        2.0312839198
  H        27.1724553115       11.6697133668        6.7937292475
  H        31.0195840446       22.7554536044        4.0656808511
  H        32.0393108106       24.6307761025        5.3523164811
  H        35.6938366499       24.1557328499        3.1336401186
  H        34.6514638142       22.2913909623        1.8324005347
  H        33.7132160175       23.5622233934        6.7588588407
  H        25.6999588571        8.5944640097        3.4099608754
  H        30.9544426327       22.7239152687       11.9282101381
  H        31.9945451481       24.5622302050       10.6107463048
  H        35.6262392180       24.1210450952       12.8750978107
  H        34.5743943208       22.2713078123       14.1863278660
  H        33.6925271245       23.5453949613        9.1972163058
  H        40.5791358120       17.1152882839       12.6628270823
  H        32.5181421791       14.1341302892        0.3471462564
  H        29.9088778237       12.5224529116       11.9103317196
  H        28.8908358747       10.6159227748       10.6680155280
  H        25.2126232500       11.1792396168       12.8259607624
  H        26.2442274544       13.0950188780       14.0622716116
  H        27.1771467540       11.6804497126        9.2338087575
  H        33.2911412007       14.1899389333       14.4319674979
  H        33.4129525779       14.4284575028        1.6584372245
  H        32.0944883220       18.5192228991       13.1581276589
  H        30.2354156814       14.1861812079        0.1280620150
  H        16.1184266072        2.9633178655        4.1349591731
  H        14.9533528436        4.8204951047        5.3276275222
  H        17.3658352335        7.6858978812        3.2147632615
  H        18.5145056749        5.8181359599        2.0148725445
  H        16.7532786664        5.7391844242        6.7766915838
  H        44.8281444259       32.1402170536        3.9823772605
  H        45.9370752702       30.3412262108        5.3118171653
  H        43.6827624181       27.3782094688        3.1571484490
  H        42.5999082993       29.1899531560        1.8147982383
  H        44.2305054184       29.4366633944        6.7740149253
  H        14.8509785008        8.5462345478        3.3684766888
  H        44.8998296940       32.2339687651       11.9265038372
  H        46.0242352377       30.4128349657       10.6468652758
  H        43.7638391800       27.4840378280       12.8407776395
  H        42.6458677771       29.3175433038       14.1195843958
  H        44.2686004962       29.4704149003        9.2130194819
  H        35.1026548558       26.6073901681       12.6264498659
  H        36.6048604889       35.1338130860        0.1858925458
  H        16.1438100912        3.0128971535       11.8988237417
  H        14.9742600138        4.8563074044       10.6831301989
  H        17.3952360333        7.7472220312       12.7508315423
  H        18.5423429868        5.8931413079       13.9785711603
  H        16.7642944411        5.7550671776        9.2142067278
  H        36.2784509872       34.4820444312       14.2682961769
  H        36.3810525240       34.2090343584        1.5051527940
  H        40.5800801998       33.2014776555       13.1488784311
  H        17.4706947148        1.9468129168       15.9689911707
  H        28.7435968473       19.0791467437        4.2970433174
  H        30.0012467877       20.0641280325       11.8417877545
  H        32.0110019683       16.0152259225       11.5764968080
  H        30.9389476215       15.5274032323        4.4751458887
  H        28.3499533411       17.3532861350        6.6986358646
  H        29.1273226066       15.1881903305        5.9882650245
  H        31.3222013211       20.2130638388        9.2896612619
  H        32.5421778004       17.6357050239        9.1088268341
  H        29.0150519133       16.4717519994        9.0007090975
  H        18.8529865709        0.8690345389        4.3400246489
  H        40.5276498042       35.2293183126       11.9471683110
  H        42.3226635135       34.4171585962       11.5869376994
  H        22.0879509841        0.6918327400        4.3566005173
  H        11.5972438011       18.7129863669        4.3869706937
  H        52.2647989342       18.4302721120       11.6728532296
  H        49.2542386967       16.4788271997       11.5808740492
  H        10.1505480779       15.7983336673        4.2977676907
  H        50.8494079888       17.6923478925       11.9495002716
  H        10.0458913052       17.3945507778        4.0571442596
  H        20.2138789416        0.0020439983        4.0473028699
  H        39.1832481581       36.1244929452       11.6816880850
 Ni        30.0330793020       18.0926894027       10.5710643060
 Ni        31.1830784357       15.9189192680        7.7656547626
 Ni        29.9884433922       18.9539107753        7.4848532028
 Ni        29.9052800487       17.3502700043        5.0835904198
  O        10.6498572994       14.3650164111       13.4805838850
  O        12.6130952142       14.6574979224       14.5788347752
  O        49.1481380253       16.8459960382       15.9845883491
  O        50.3502600905       20.9359959524       13.6431282685
  O        48.3485948767       20.5935088864       14.6609231429
  O        11.0511045727       17.0540502794       14.4953389957
  O        50.3212463719       20.8817521114        2.4117797283
  O        48.3468089012       20.5870136466        1.3321059008
  O        49.5437261917       18.2485596231        2.0733838185
  O        12.3587262591       18.6246319911        0.0048704892
  O        48.6929559974       14.1486340861       14.7460096180
  O         8.2097275111       14.2102158523        1.3276985170
  O        10.7353013423       14.5065015014        2.6693397794
  O        12.5717746539       14.5826644171        1.3334157854
  O        22.8449128811        2.0437022142       13.4819917354
  O        21.6058991960        3.5928663567       14.5842779309
  O        42.0581412707       34.1373668992       15.9738320671
  O        37.9818765668       33.1377052946       13.5673545253
  O        39.2187943327       31.5769535847       14.6623453713
  O        20.3084260108        1.0393515473       14.4968616729
  O        38.0251377750       33.1862783172        2.4202721318
  O        39.2197799377       31.5842284929        1.3310684511
  O        40.6520115180       33.7692236290        2.0654133660
  O        18.2554454870        1.3757439541        0.0019301191
  O        44.6222746577       35.1004430306       14.7535402982
  O        24.2054394936       -0.0000210125        1.3259522680
  O        22.7531968894        2.0577395200        2.5888675275
  O        21.6246496633        3.5962346516        1.3476555196
  O        27.4955294087       18.7447495667       13.4918546905
  O        26.7705599764       16.9287171850       14.6527227492
  O        30.6769574263       19.4043957560        0.0724499588
  O        33.5188461708       16.3415632765       13.5881559821
  O        34.2685956089       18.1675503419       14.7319658200
  O        29.5767300043       17.0644101645       14.5861339578
  O        33.6130200530       16.3300526276        2.4233146665
  O        34.3012128025       18.2493314182        1.4140337430
  O        31.6445953345       18.3172500179        2.2301440011
  O        30.3247888106       15.1534366387        0.1521800244
  O        28.5564531579       21.0326438997       14.8978361680
  O        28.5132099378       20.9592092030        1.4153817024
  O        27.4543810251       18.6827065938        2.6596080407
  O        26.6914744204       16.9320486282        1.4189923537
  O        13.1492749855       18.6930916225        2.5928333985
  O        13.9198996732       16.9161944093        1.4101034199
  O        50.5956290385       19.3501931864        0.0254311654
  O        47.6841214050       16.3268539963        2.4222567844
  O        46.9526086431       18.1760625604        1.3292181338
  O        11.0694021259       17.0155341453        1.4949173009
  O        47.6743082579       16.3355079878       13.6473382009
  O        46.9283138216       18.2362382831       14.6597961075
  O        49.5682612755       18.3178467173       13.9769995910
  O        10.3186059191       15.1003512181        0.0022540019
  O        52.6706660158       21.0279181737        1.2469506377
  O        12.1468369569       20.8912389628       14.6680390538
  O        13.1087904982       18.6135490207       13.3200804068
  O        13.9574132206       16.9868846008       14.6602584539
  O        29.9911140585       14.4397928780        2.7351485933
  O        28.0860732812       14.6536264239        1.4999890134
  O        32.1343839600       16.8734851915        0.1413042621
  O        30.9662682440       20.9542432775        2.4278004435
  O        32.9440408846       20.6079961601        1.3483237658
  O        29.5691560411       17.0797125767        1.5816420670
  O        30.8795820627       20.9588612204       13.6645085536
  O        32.8804407580       20.5844590716       14.6661237089
  O        31.6750491268       18.2490360509       13.9906378995
  O        28.2865240385       18.6767066232        0.0878123590
  O        32.4967065733       14.2106457096        1.3999880578
  O        32.4045548585       14.2151852941       14.8284117508
  O        29.8845845353       14.4915921873       13.4292632761
  O        28.0456659323       14.5784260465       14.7467073419
  O        17.8893294858        1.9665236858        2.6680772409
  O        18.9563733202        3.5270963905        1.4132058863
  O        39.1687300407       34.1385286234        0.0022852712
  O        43.2802714716       33.0590754650        2.3366175996
  O        42.0345479192       31.5065838490        1.2466140890
  O        20.3177705071        1.0365582270        1.4854117359
  O        43.2762283579       33.1826977886       13.5701813347
  O        42.0053902433       31.5841335963       14.5781093899
  O        40.5786472594       33.7746683941       13.9306401115
  O        22.3669941468        1.3845723615        0.0029943591
  O        36.6727248235       35.0996793843        1.2384692351
  O        16.4453952862        0.0640306435       14.6631797089
  O        17.9365628183        2.0433728637       13.3210628457
  O        18.9192696332        3.5930776472       14.6607520160
  O        29.8134657336       19.1484133701       12.1345532772
  O        29.6897598836       19.0458985744        4.0306857922
  O        31.2054187517       16.0328716700       12.1388532678
  O        31.3309991446       16.3500660831        4.0882416560
  O        32.6510576137       16.8204665274        9.6510288622
  O        29.8587707750       16.9582791056        8.9519669627
  O        29.9121489872       15.7465539367        6.1232778495
  O        31.5650919303       17.8252682352        7.0979856955
  O        30.6824455722       19.4643166323        9.2040348634
  O        28.6298478888       18.1572211704        6.2223104340
  O        39.4566974880       35.2438453037       11.9968661204
  O        19.1408850267        0.0043994739        3.9957248460
  O        41.9696834697       35.1726703093       12.0821369711
  O        21.6912060432       -0.0693709990        3.9009822440
  O        51.3649941100       18.6142396884       12.0003616591
  O        10.7511784341       18.7473282296        3.9099819323
  O        50.0796613819       16.4128470762       12.0864560210
  O         9.5246510086       16.4831125189        3.9963929234
 Zr         9.2942422180       16.0534391363       14.1771423420
 Zr        49.8342168339       16.0071775957        1.7516518473
 Zr        22.0729938982        0.0283572337       14.1841839377
 Zr        42.4606912775       35.1519964453        1.8059149521
 Zr        29.5970295432       19.1053539499       14.2634638958
 Zr        29.5833520572       19.1874780352        1.8651511966
 Zr        11.0364677218       19.0521386488        1.8324008291
 Zr        11.0422576341       19.1550652998       14.2464436482
 Zr        31.3422307451       16.1198712144        1.9549711474
 Zr        31.4134586844       16.0442902486       14.4265938105
 Zr        18.6007392763       -0.0022008189        1.7683650883
 Zr        18.5060657743       -0.0085244202       14.2086949123
 Zr        12.2998850745       16.3242915136       15.9850762962
 Zr        48.6135697932       18.8326323224        0.0152586428
 Zr        20.3141973273        2.4718708240       15.9854441704
 Zr        40.6436880272       32.6856289499       15.9732480040
 Zr        28.3335030644       16.3518588319        0.0990309388
 Zr        32.6394290131       18.8696800726        0.0769869753
  H        32.3088261891       18.2824843863        6.6691937956
  O        30.9795643049       14.3755822438        9.5498113140
  H        30.7836886954       15.2238064420       10.0425963028
  H        30.1209457987       13.9136362210        9.5622598951
  O        32.7449380858       15.2294285554        6.5751044374
  H        33.5095414814       15.7212664362        6.9249752337
  H        32.4886375048       15.7197030217        5.7536239704
  O        27.8879843307       20.1596157181        7.9489905446
  H        27.5876515974       19.4637753668        7.3298064083
  H        27.7696562426       19.8101770038        8.8490342472
  O        30.3937488716       20.7023494932        6.1248937104
  H        30.1944500484       20.2288041174        5.2630667475
  H        29.6179882998       21.2648173501        6.2910579069
  H        30.6960621717       15.1781494038       12.1109313517
  H        33.6164188898       16.6489046943        9.6595425844
