     586
 i =      387, E =     -4847.8101508748
  C        11.8587730896       14.0535101278       13.7364567765
  C        12.4562411658       12.8905927112       13.0181811804
  C        11.7044201253       12.1715146593       12.0767266865
  C        12.2807480844       11.1092824542       11.3843867052
  C        13.6214057312       10.7396481597       11.6119015576
  C        14.3546905481       11.4433452100       12.5851902629
  C        13.7818620040       12.5083573470       13.2766874265
  C        14.2608720773        9.6489141994       10.8385469945
  C        14.2561832310        9.6568312113        9.4168499737
  C        13.7429590194       10.7589264586        8.6629459360
  C        49.1269842266       21.2331667505       13.8744863045
  C        48.5502887161       22.4011501408       13.1474381406
  C        49.3003035170       23.0684694882       12.1664301718
  C        48.7333777625       24.1076304603       11.4332440106
  C        47.4028734903       24.5093456319       11.6619423015
  C        46.6719799113       23.8605527656       12.6755527610
  C        47.2344263024       22.8156460196       13.4048885102
  C        46.7725681187       25.5870040255       10.8646739877
  C        46.7614183577       25.5573205799        9.4429167956
  C        47.2614478592       24.4422724576        8.6994195680
  C        14.8601533296        8.5705120633        8.7035880281
  C        14.8916861906        8.5969998760       11.5152100230
  C        49.1132929419       21.2034532430        2.1504426450
  C        48.5279668324       22.3648546910        2.8775929587
  C        49.2671313233       23.0254323092        3.8706449654
  C        48.6908239106       24.0600123301        4.6020973021
  C        47.3604761267       24.4569263119        4.3637409953
  C        46.6401717805       23.8122231514        3.3400060029
  C        47.2137032375       22.7763100876        2.6082272880
  C        46.7219967823       25.5318609101        5.1547821930
  C        46.7335988369       25.5281362553        6.5764876936
  C        47.2491326158       24.4289658632        7.3328677896
  C        40.6338546127       17.1246461275        7.3221949480
  C        40.6547653831       17.1618834092        4.5127743690
  C        11.8830915586       14.0864950591        2.2905710813
  C        12.4723890557       12.9107392922        2.9948122039
  C        11.7148079935       12.1774660672        3.9208228316
  C        12.2813746445       11.0950169293        4.5892618274
  C        13.6202381533       10.7213590533        4.3575552804
  C        14.3582801908       11.4370101383        3.3968617977
  C        13.7928855743       12.5181796217        2.7241469751
  C        14.2538025109        9.6245964191        5.1279872774
  C        14.2524526411        9.6445354091        6.5498263166
  C        13.7424513345       10.7534229521        7.2969004172
  C        22.5137537145        3.2444591367       13.7484375425
  C        23.2330820716        4.3481867840       13.0503745750
  C        24.2309859704        4.0644712328       12.1060880704
  C        24.8632572357        5.1013151927       11.4246425589
  C        24.5136898108        6.4445813093       11.6671909826
  C        23.5441359852        6.7198840879       12.6487469657
  C        22.9071758378        5.6847314506       13.3286599660
  C        25.1230344073        7.5486398976       10.8900889359
  C        25.0906548353        7.5421305821        9.4686112160
  C        24.3834077681        6.5448348826        8.7245833018
  C        38.3035441847       31.9290639526       13.8431105519
  C        37.5765514389       30.8383729050       13.1321489016
  C        36.6196087425       31.1400286653       12.1511730614
  C        36.0055489660       30.1181675582       11.4321514786
  C        36.3332264327       28.7694872583       11.6730648803
  C        37.2605872433       28.4753489811       12.6903224990
  C        37.8790561999       29.4958793865       13.4077900259
  C        35.7331726701       27.6760632383       10.8760294463
  C        35.7667988353       27.6889849918        9.4547379872
  C        36.4740656759       28.6903346327        8.7174879189
  C        25.7131877135        8.6110843584        8.7467554519
  C        25.7259650595        8.6217051644       11.5584152513
  C        38.3290006689       31.9620543884        2.1609730692
  C        37.6085780838       30.8874333636        2.9019068033
  C        36.6815635098       31.1934969917        3.9098230626
  C        36.0741220312       30.1728984753        4.6386765273
  C        36.3796083721       28.8211618038        4.3828057237
  C        37.2836735461       28.5251177930        3.3444231430
  C        37.8933133135       29.5421289843        2.6169836015
  C        35.7748038424       27.7201222335        5.1664768328
  C        35.7881042877       27.7115056578        6.5883310683
  C        36.4839305054       28.7013860006        7.3509948912
  C        46.1355480198       26.6207437262        7.2866351331
  C        46.0880415426       26.5802276737        4.4787348798
  C        22.4599851717        3.2554581322        2.2628630636
  C        23.1524251167        4.3639718715        2.9869582931
  C        24.1550786633        4.0776621141        3.9270060466
  C        24.7820765037        5.1075860949        4.6239094640
  C        24.4262650182        6.4531954679        4.4031533498
  C        23.4463334733        6.7328371879        3.4318897321
  C        22.8147744831        5.7031108482        2.7354414493
  C        25.0582159111        7.5506626735        5.1766410023
  C        25.0580721425        7.5423290793        6.5994443407
  C        24.3663769597        6.5456658910        7.3579684634
  C        26.6239761649       17.8610683817       13.7759291323
  C        25.3167521314       17.9115299739       13.0530821968
  C        25.0703047334       18.8946927935       12.0815856927
  C        23.8561630671       18.9185794589       11.3976377168
  C        22.8540983033       17.9617646759       11.6596314171
  C        23.0988283963       17.0009166339       12.6592377532
  C        24.3134424040       16.9723813143       13.3427828273
  C        21.5811018193       17.9469038037       10.8949868794
  C        21.5805665346       17.9203696731        9.4722839614
  C        22.7854695681       17.7894496191        8.7113869889
  C        34.4232535366       17.2238502839       13.8787259263
  C        35.7195661257       17.1628120310       13.1447070302
  C        35.9245048963       16.1921317351       12.1516339596
  C        37.1103809961       16.1711416759       11.4236943952
  C        38.1212554208       17.1208137395       11.6673927551
  C        37.9196195548       18.0706887405       12.6868900099
  C        36.7324199891       18.0955565176       13.4144754004
  C        39.3767874596       17.1263560266       10.8841602587
  C        39.3733571473       17.1376972285        9.4624845538
  C        38.1661362234       17.2494301724        8.7025368176
  C        20.3337287193       17.9378068522        8.7638482899
  C        20.3556037448       17.9509778682       11.5769345427
  C        34.4756555645       17.2461276521        2.1816134321
  C        35.7809962035       17.1646925255        2.8999055228
  C        36.0182240731       16.1433837703        3.8332570616
  C        37.2015393385       16.1279911549        4.5677909988
  C        38.1776476744       17.1256078948        4.3796332305
  C        37.9498947649       18.1181344939        3.4090209428
  C        36.7624699148       18.1429906697        2.6822603420
  C        39.4242063560       17.1417150665        5.1766016293
  C        39.3982118260       17.1431825664        6.5968160267
  C        38.1781343967       17.2475546358        7.3360313191
  C        35.1577333170       26.6323120943        7.2923244695
  C        35.1834533941       26.6503661678        4.4832144979
  C        26.5705182115       17.8228732965        2.3327478783
  C        25.2575066032       17.8754623770        3.0390674667
  C        24.9975676786       18.8795915819        3.9846889266
  C        23.7790745659       18.9070888860        4.6572009000
  C        22.7925606332       17.9314528558        4.4092182378
  C        23.0473680577       16.9536788988        3.4307257481
  C        24.2657842234       16.9237407141        2.7556687420
  C        21.5292571774       17.9131071684        5.1822048329
  C        21.5540799968       17.9015734958        6.6035431142
  C        22.7725354234       17.7800304236        7.3450726231
  C        14.0470672248       17.8290593365        2.2942659216
  C        15.3513743501       17.8869484144        3.0201192997
  C        15.6066193125       18.8899931535        3.9684023071
  C        16.8153711653       18.9122118493        4.6617718987
  C        17.8035855648       17.9342379342        4.4292643944
  C        17.5530154142       16.9553265898        3.4490208689
  C        16.3436520747       16.9284540710        2.7572378578
  C        19.0730604383       17.9189601225        5.1982165488
  C        19.0726267748       17.9153901574        6.6208685464
  C        17.8660603393       17.8157331784        7.3826049993
  C        46.8072148865       17.2195547862        2.1640247310
  C        45.5191530762       17.1611303127        2.9115341351
  C        45.3140556532       16.1860141813        3.8995193511
  C        44.1335952206       16.1719340407        4.6371281518
  C        43.1301611365       17.1330835909        4.4072926222
  C        43.3327876203       18.0882663005        3.3932708703
  C        44.5139426811       18.1062814034        2.6568699557
  C        41.8773129237       17.1454302861        5.1941554966
  C        41.8813577095       17.1429001291        6.6156477564
  C        43.0890714796       17.2408961391        7.3760822166
  C        20.3197473272       17.9272898244        7.3289008597
  C        20.2970477759       17.9019400269        4.5157137398
  C        46.7851135212       17.2314747907       13.8841735012
  C        45.4814087044       17.1265656660       13.1690567157
  C        45.2624373355       16.1299253358       12.2061114144
  C        44.0743116307       16.1051863596       11.4799347517
  C        43.0759731016       17.0738613955       11.7001733364
  C        43.2848861741       18.0397557128       12.7020962471
  C        44.4743038717       18.0710659398       13.4230354730
  C        41.8305711877       17.0986245523       10.9021064713
  C        41.8573854604       17.1180715989        9.4813798233
  C        43.0776520406       17.2263103222        8.7425132827
  C        46.1533380530       26.6371732314        8.7211845352
  C        46.1626126396       26.6561115358       11.5308261202
  C        14.0464669962       17.8325695198       13.7038129347
  C        15.3681892759       17.9091019859       13.0141885824
  C        15.6407207778       18.9251221691       12.0858531108
  C        16.8701066132       18.9647499456       11.4316154606
  C        17.8552152755       17.9875891762       11.6796450301
  C        17.5895971651       17.0006834746       12.6464375782
  C        16.3621651589       16.9604843243       13.3041444605
  C        19.1229048741       17.9644432381       10.9104485212
  C        19.0986297083       17.9376118788        9.4888735817
  C        17.8788364628       17.8256999441        8.7486176882
  C        28.8013649090       14.0900202959        2.3979375043
  C        28.1884133762       12.9194554672        3.0873271397
  C        28.9238343530       12.1518790184        4.0031127799
  C        28.3233915513       11.0777054106        4.6550171017
  C        26.9758191188       10.7450012698        4.4108293657
  C        26.2611584108       11.4922087165        3.4577841125
  C        26.8581093255       12.5685587021        2.8068078831
  C        26.3101475134        9.6624253599        5.1712145054
  C        26.3085253906        9.6852030778        6.5918263171
  C        26.8203336355       10.7958909037        7.3348271511
  C        32.1794158053       21.2393673293        2.1470506618
  C        32.7750285413       22.4053797465        2.8634006113
  C        32.0296370593       23.0837931789        3.8396835269
  C        32.6029769116       24.1206589066        4.5688253456
  C        33.9378499370       24.5072109745        4.3419767178
  C        34.6659565047       23.8483997054        3.3332404628
  C        34.0948629684       22.8057914534        2.6062596825
  C        34.5695438432       25.5802328365        5.1429062133
  C        34.5633108169       25.5498866587        6.5644744700
  C        34.0522553868       24.4355923888        7.3024314321
  C        25.7006586405        8.6076511098        7.3123197916
  C        25.6688672206        8.6146137153        4.4986976580
  C        32.1035812982       21.2286991006       13.8763967003
  C        32.6963244948       22.3765485968       13.1305840399
  C        31.9681802848       23.0270448132       12.1224066756
  C        32.5510865346       24.0554130314       11.3858719734
  C        33.8759936942       24.4622894621       11.6377951946
  C        34.5871980783       23.8239124943       12.6721508656
  C        34.0090970372       22.7907096476       13.4048447409
  C        34.5185242751       25.5416997175       10.8532909936
  C        34.5369146400       25.5305633017        9.4312896137
  C        34.0392627104       24.4269585209        8.6691079310
  C        40.6210524828       17.1168025651        8.7561621583
  C        40.5990655746       17.1221944601       11.5656222085
  C        28.7448530316       14.0679369609       13.8143695061
  C        28.1418870107       12.9201391005       13.0739513589
  C        28.8803602686       12.2354803047       12.0954961094
  C        28.3045360707       11.1768416264       11.3960835377
  C        26.9766264324       10.7767736512       11.6501708245
  C        26.2569421964       11.4506864020       12.6546314797
  C        26.8297851970       12.5097796148       13.3556970020
  C        26.3371565237        9.6839074656       10.8789816311
  C        26.3223754913        9.6972340532        9.4572486591
  C        26.8232574894       10.8028752680        8.7004942542
  C        18.1354598422        3.1810436743        2.3222400274
  C        17.4061567846        4.2782637440        3.0208723225
  C        16.3903786855        3.9998943170        3.9483270538
  C        15.7426211675        5.0398581984        4.6118217871
  C        16.0945934797        6.3835807370        4.3722376563
  C        17.0839981740        6.6531273769        3.4084976670
  C        17.7331142608        5.6157992988        2.7434486634
  C        15.4702305202        7.4912601504        5.1352833797
  C        15.4854300345        7.4905310932        6.5569990262
  C        16.1869015918        6.4968675037        7.3101833317
  C        42.9459432451       31.8595497205        2.0779819076
  C        43.6463386439       30.7718852362        2.8219630429
  C        44.5918884532       31.0932101180        3.8080095163
  C        45.1975908450       30.0876645940        4.5556921069
  C        44.8711634909       28.7346044324        4.3408422741
  C        43.9453549499       28.4202700024        3.3276116338
  C        43.3365325112       29.4254001243        2.5795645047
  C        45.4887299107       27.6552827974        5.1440224157
  C        45.4928196956       27.6808616516        6.5657176047
  C        44.8057439077       28.6889051015        7.3123578235
  C        14.8564208918        8.5629975928        7.2693662632
  C        14.8750559484        8.5630901640        4.4566942623
  C        42.9464742150       31.9615605418       13.8038716123
  C        43.6917538157       30.8854290889       13.0904131151
  C        44.6563949680       31.1913302675       12.1181625978
  C        45.2779855679       30.1717567588       11.4004638665
  C        44.9541289568       28.8214491895       11.6380226984
  C        44.0206292487       28.5237651470       12.6487811051
  C        43.3923129658       29.5405291543       13.3609107376
  C        45.5631694236       27.7240336833       10.8527877827
  C        45.5333675223       27.7173157116        9.4314927601
  C        44.8270108748       28.7075242230        8.6785438042
  C        35.1455711283       26.6216819798        8.7270425719
  C        35.1275061490       26.6013183121       11.5365655174
  C        18.1485747636        3.2470113705       13.7014594979
  C        17.4299190750        4.3438164918       12.9922520793
  C        16.4145884187        4.0525165365       12.0688165720
  C        15.7662537121        5.0831331185       11.3934329958
  C        16.1209729948        6.4283673841       11.6160753054
  C        17.1124690661        6.7117761299       12.5732053747
  C        17.7601797434        5.6828867085       13.2529670771
  C        15.4904628778        7.5240438932       10.8436124329
  C        15.4963476733        7.5073980136        9.4224779314
  C        16.1930780659        6.5056678112        8.6757893726
  H        10.6722154408       12.4654756502       11.8998803947
  H        11.6943738004       10.5506371643       10.6580401477
  H        15.3917914467       11.1688896149       12.7667373418
  H        14.3514387044       13.0717401186       14.0119117448
  H        13.3758537732       11.6310069726        9.1962654071
  H        50.3230073737       22.7484377767       11.9816391875
  H        49.3198945016       24.6229339063       10.6757136614
  H        45.6425722004       24.1615096688       12.8588891095
  H        46.6634930902       22.2904948806       14.1670997948
  H        47.6301561880       23.5759664786        9.2411012313
  H        14.8720271594        8.5882580805       12.6035177579
  H        50.2871490300       22.7025286083        4.0656246899
  H        49.2692301180       24.5754085279        5.3656324993
  H        45.6108848827       24.1097336319        3.1507334528
  H        46.6529944749       22.2543560710        1.8364445044
  H        47.6080660108       23.5519080148        6.8019769564
  H        40.6620275322       17.1352861984        3.4248261968
  H        48.6871214371       14.0949035740       15.7949579635
  H        10.6812727566       12.4663961205        4.0980684292
  H        11.6895030647       10.5244997607        5.3017951122
  H        15.3937534093       11.1591996329        3.2110460946
  H        14.3653066375       13.0876157905        1.9957335989
  H        13.3755814652       11.6220182786        6.7582643007
  H        47.9304421677       14.2175479771        1.7161665159
  H        47.7799499601       14.3730053159       14.4900836355
  H        49.0846230263       18.5527940096        2.8726462209
  H        10.4161995569       14.1342600528        0.0037671323
  H        24.4887080786        3.0249055077       11.9162272493
  H        25.6368269627        4.8804177767       10.6923488193
  H        23.2665447165        7.7539076086       12.8425772265
  H        22.1364342266        5.8885419203       14.0680072414
  H        23.8232280580        5.7885747403        9.2666929684
  H        36.3819231871       32.1827698543       11.9542828819
  H        35.2630919088       30.3556077948       10.6734258006
  H        37.5212553001       27.4367604124       12.8832678388
  H        38.6208013763       29.2766994274       14.1721433404
  H        37.0399370108       29.4395078088        9.2635753708
  H        25.7644990324        8.6045063349       12.6461189065
  H        36.4581392901       32.2371117300        4.1195700686
  H        35.3499241151       30.4153812854        5.4132498120
  H        37.5310365433       27.4855122738        3.1400847973
  H        38.6142657706       29.3189387774        1.8343507071
  H        37.0583223399       29.4586452383        6.8251877209
  H        46.1096031568       26.5877538661        3.3907026116
  H        44.6683491599       35.1161721687       15.8088176227
  H        24.4339534677        3.0395069799        4.0926692040
  H        25.5638278398        4.8789635614        5.3451259769
  H        23.1601966982        7.7672667397        3.2527955462
  H        22.0424773042        5.9157477267        1.9998333450
  H        23.7923289816        5.7907628469        6.8284992484
  H        44.9542602963       34.3907832824        1.7004620607
  H        44.9022834760       34.2070181429       14.4854417656
  H        40.6659903264       33.2091498340        2.8582228738
  H        23.1505899410        1.9576941053        0.0105365709
  H        25.8430273383       19.6317447593       11.8741621783
  H        23.6704914360       19.6884876090       10.6517048390
  H        22.3379268032       16.2523523533       12.8706569279
  H        24.5125416365       16.2164481961       14.0988422344
  H        23.7256088333       17.6637854433        9.2407423558
  H        35.1405642357       15.4642901466       11.9566737876
  H        37.2684736696       15.4098469835       10.6629442806
  H        38.6931662449       18.8113618445       12.8789536754
  H        36.5596951842       18.8422957798       14.1860761260
  H        37.2250613047       17.3639674276        9.2326967696
  H        20.3624114511       17.9948674864       12.6646570134
  H        35.2594857757       15.3770243997        3.9812690441
  H        37.3854687794       15.3354511772        5.2904354272
  H        38.6998312600       18.8921518568        3.2594013222
  H        36.5622867324       18.9262431403        1.9548898313
  H        37.2470072495       17.3590761968        6.7878935260
  H        35.1531092205       26.6779158453        3.3956300288
  H        28.5048212128       21.0676665930       15.9527037106
  H        25.7599432029       19.6316029137        4.1767191531
  H        23.5743725253       19.6917209480        5.3827250565
  H        22.2937883887       16.1941465752        3.2329174340
  H        24.4785083103       16.1571205119        2.0144202110
  H        23.7023666178       17.6441911207        6.8003675588
  H        29.0038991547       21.7173427023        1.7611356291
  H        29.1725749169       21.7326655912       14.6206762317
  H        32.1409196109       18.5917470175        2.9565120625
  H        27.3775209081       19.0241927187        0.0777585440
  H        14.8473181607       19.6481606312        4.1466697356
  H        17.0091403623       19.6965716923        5.3903224716
  H        18.3052810879       16.1921721025        3.2601832454
  H        16.1392282629       16.1592943660        2.0162161778
  H        16.9234607210       17.6990384834        6.8557521701
  H        46.0964480097       15.4531124397        4.0819090496
  H        43.9731893190       15.4082280559        5.3949308880
  H        42.5652067700       18.8379882921        3.2129958498
  H        44.6885602182       18.8574026924        1.8901589815
  H        44.0309496171       17.3593997030        6.8480618029
  H        20.2907532939       17.9334110907        3.4276256828
  H        46.0390526945       15.3896127532       12.0279383653
  H        43.9072031239       15.3323204064       10.7328297613
  H        42.5187668743       18.7918575209       12.8786155255
  H        44.6576657806       18.8360960999       14.1734608002
  H        44.0108871395       17.3322075176        9.2880779384
  H        46.1996156647       26.6827611656       12.6182642234
  H        52.7412845260       21.0627558841        0.1998222464
  H        14.8791884451       19.6776923782       11.8935208431
  H        17.0799666636       19.7557425755       10.7147937931
  H        18.3413265267       16.2397893398       12.8461018097
  H        16.1423356516       16.1853770767       14.0342883021
  H        16.9457266143       17.7166594199        9.2931439196
  H        52.3232365946       21.6735036909       14.2889033042
  H        52.0138494945       21.7025010876        1.5009353887
  H        49.0678656397       18.6077060480       13.1987374289
  H        13.2478000745       19.0164060551       15.9722877325
  H        29.9663557026       12.4039363863        4.1855557005
  H        28.8940350839       10.4821301844        5.3643994871
  H        25.2197006803       11.2442744873        3.2634790117
  H        26.3051227588       13.1671302997        2.0870581026
  H        27.1834206324       11.6641819209        6.7930528261
  H        31.0046210664       22.7720308709        4.0225782478
  H        32.0201312566       24.6454208107        5.3225910532
  H        35.6988934023       24.1387135496        3.1524099052
  H        34.6622146980       22.2713881201        1.8477148581
  H        33.6909183244       23.5684424155        6.7566924910
  H        25.6912172689        8.5984691159        3.4104683116
  H        30.9487817868       22.7076992258       11.9193601991
  H        31.9785430445       24.5608118478       10.6112408520
  H        35.6130191678       24.1265377186       12.8720786205
  H        34.5634685696       22.2760981650       14.1862252313
  H        33.6686883301       23.5528205863        9.1969593883
  H        40.5904395391       17.0833067199       12.6532307062
  H        32.5221329706       14.1559243103        0.2517992529
  H        29.9071786792       12.5418365988       11.9039310246
  H        28.8854406489       10.6402447995       10.6488949936
  H        25.2294324629       11.1551265002       12.8566711864
  H        26.2706973112       13.0456720392       14.1191227010
  H        27.1868911727       11.6771423831        9.2320892418
  H        33.2953986624       14.1841891462       14.4267575566
  H        33.4063326386       14.3654604841        1.6278392297
  H        32.1017248867       18.5501459665       13.1684839851
  H        30.2295572570       14.1943587980        0.0772113444
  H        16.1182244123        2.9633967223        4.1346318842
  H        14.9530744242        4.8204532544        5.3273693328
  H        17.3664349082        7.6860079507        3.2154206971
  H        18.5151200981        5.8184736247        2.0155737436
  H        16.7534298026        5.7394955483        6.7767006593
  H        44.8282216222       32.1402861244        3.9821689341
  H        45.9375238900       30.3414336952        5.3115681709
  H        43.6827422938       27.3781897136        3.1574471536
  H        42.5999443325       29.1900867619        1.8148660820
  H        44.2304714408       29.4367305049        6.7740443888
  H        14.8513431216        8.5463457858        3.3684730480
  H        44.9000414458       32.2340017558       11.9267900970
  H        46.0249753506       30.4130028557       10.6473111868
  H        43.7637012245       27.4840272701       12.8403431807
  H        42.6458289491       29.3177547734       14.1193757024
  H        44.2686001964       29.4704701464        9.2131451710
  H        35.0822660631       26.6157118072       12.6239001938
  H        36.6050427196       35.1340136339        0.1858274211
  H        16.1434121647        3.0129473070       11.8991944783
  H        14.9738141602        4.8562814388       10.6834765684
  H        17.3960350037        7.7472436060       12.7500043271
  H        18.5431488376        5.8933552696       13.9776248405
  H        16.7644263925        5.7553745077        9.2142446900
  H        36.2780858043       34.4829385254       14.2678167357
  H        36.3803979862       34.2094670842        1.5049886735
  H        40.5804722495       33.2027288432       13.1482132517
  H        17.4708228898        1.9476482672       15.9689863983
  H        28.8241061332       19.0465222953        4.3997061056
  H        29.8087759897       19.8542573541       11.5960819186
  H        32.2343828277       16.2189875539       11.6794753252
  H        30.8712818204       15.3935089574        4.2405443565
  H        28.4537368273       17.6107945075        6.9760904990
  H        29.9854218019       14.9124800753        6.3308060605
  H        31.9958509649       20.0152328342        9.1817593536
  H        32.8852001973       17.4961260737        9.0055280256
  H        28.8030670448       17.3454420116        9.3333255215
  H        18.8532506989        0.8689222906        4.3404211707
  H        40.5278895789       35.2291345711       11.9469104167
  H        42.3244198600       34.4194022971       11.5850110055
  H        22.0877700313        0.6918968736        4.3568168455
  H        11.5967373212       18.7132573808        4.3878451190
  H        52.2649148161       18.4312503822       11.6719346079
  H        49.2552951124       16.4765859798       11.5791528371
  H        10.1503891517       15.7981640106        4.2978939822
  H        50.8501425720       17.6924450269       11.9490987758
  H        10.0463239777       17.3944848236        4.0570357006
  H        20.2146378785        0.0022543828        4.0470880464
  H        39.1835685321       36.1245502130       11.6814197194
 Ni        30.9467555263       18.0089338136       10.5789850321
 Ni        31.0309743545       16.2059818018        8.1623162101
 Ni        30.1385536597       19.1117876076        7.8269185328
 Ni        30.1830767025       17.3777213705        5.3311812312
  O        10.6499500390       14.3651216894       13.4807536092
  O        12.6131918907       14.6575563703       14.5787970228
  O        49.1480721253       16.8458998849       15.9845690298
  O        50.3503433755       20.9356777035       13.6428566418
  O        48.3486062112       20.5933480439       14.6607691248
  O        11.0518241267       17.0537773763       14.4956316924
  O        50.3210353142       20.8816077392        2.4119549039
  O        48.3467774289       20.5867691044        1.3322151586
  O        49.5438931336       18.2484255056        2.0732623672
  O        12.3593179059       18.6246406239        0.0047794127
  O        48.6932817219       14.1486151147       14.7462083622
  O         8.2100078544       14.2103400093        1.3275733643
  O        10.7354628764       14.5067643312        2.6694181804
  O        12.5718680472       14.5828712462        1.3335768008
  O        22.8447104261        2.0429096638       13.4820538332
  O        21.6063206612        3.5927800351       14.5837479762
  O        42.0582463338       34.1374145978       15.9738281420
  O        37.9817939969       33.1371953695       13.5671553622
  O        39.2183156066       31.5761119046       14.6616822614
  O        20.3084075728        1.0395804153       14.4969519886
  O        38.0245841100       33.1855192940        2.4203674663
  O        39.2194704658       31.5840044144        1.3311915687
  O        40.6522852771       33.7694265214        2.0653224075
  O        18.2555867355        1.3765804941        0.0018527715
  O        44.6222307381       35.1005684860       14.7536481695
  O        24.2053630471        0.0000364687        1.3258787365
  O        22.7528644136        2.0575553812        2.5887953567
  O        21.6242934846        3.5959033824        1.3473906636
  O        27.5009563089       18.7505164129       13.4890568902
  O        26.7655105361       16.9315384278       14.6459175221
  O        30.6368111193       19.3521846343        0.0576496868
  O        33.5453909525       16.3385542197       13.5793061726
  O        34.2746002973       18.1672897209       14.7281464574
  O        29.5772552564       17.0617335394       14.5581719056
  O        33.6122383501       16.3331467236        2.4205997720
  O        34.3036339772       18.2475081812        1.4095739185
  O        31.6521361269       18.3123791356        2.1664335724
  O        30.3252787448       15.1609680116        0.0861772145
  O        28.5561705590       21.0268570215       14.8881126902
  O        28.5128542842       20.9526907505        1.4155111953
  O        27.4610749718       18.6751697922        2.6679713534
  O        26.6934504923       16.9275479161        1.4211338504
  O        13.1488574583       18.6929599192        2.5926106292
  O        13.9197768078       16.9163748281        1.4104877300
  O        50.5964613226       19.3502601695        0.0254490477
  O        47.6841799258       16.3267896457        2.4222118871
  O        46.9524571356       18.1759830761        1.3291683641
  O        11.0700729149       17.0154548383        1.4946958961
  O        47.6752875344       16.3357576898       13.6478262981
  O        46.9269749808       18.2360448902       14.6594387968
  O        49.5687600335       18.3176909976       13.9771136739
  O        10.3187440738       15.1001074223        0.0021738263
  O        52.6708142880       21.0278615161        1.2469206204
  O        12.1468643429       20.8911353652       14.6681332432
  O        13.1083695653       18.6136571129       13.3204439003
  O        13.9577341616       16.9872768185       14.6599578813
  O        29.9904488648       14.4402148976        2.7365165981
  O        28.0892683285       14.6529039643        1.4999707151
  O        32.1393801753       16.8526863763        0.0723750214
  O        30.9649394762       20.9485964492        2.4149293595
  O        32.9445150890       20.5991202007        1.3411035062
  O        29.5702740882       17.0724147416        1.5840864270
  O        30.8723896222       20.9483351788       13.6590599878
  O        32.8763843702       20.5852108131       14.6615626701
  O        31.6791797031       18.2548633736       13.9903522983
  O        28.2667280274       18.6344371149        0.0786621031
  O        32.4906650328       14.2127991161        1.3310601317
  O        32.4057205730       14.2225671390       14.8155598398
  O        29.9166789002       14.4411997949       13.4823817800
  O        28.0389660508       14.5885264168       14.7475791596
  O        17.8892616992        1.9666648045        2.6678960358
  O        18.9562852032        3.5271640418        1.4130615603
  O        39.1686262120       34.1388600486        0.0022895091
  O        43.2802241069       33.0589633863        2.3368228130
  O        42.0345703554       31.5064289931        1.2467332429
  O        20.3177119819        1.0368542485        1.4851344111
  O        43.2760372719       33.1825130516       13.5697456560
  O        42.0052746257       31.5840693204       14.5778727362
  O        40.5789625400       33.7749891138       13.9306307435
  O        22.3673351600        1.3846531547        0.0029708713
  O        36.6728176269       35.0998393893        1.2384097081
  O        16.4456334825        0.0642817163       14.6631458416
  O        17.9365113807        2.0433823883       13.3212831651
  O        18.9191135646        3.5931643542       14.6607653170
  O        29.9149938274       18.9766311127       12.0054886727
  O        29.7453497670       18.9780838059        4.0759241174
  O        31.3106444747       16.2799890794       11.9930745761
  O        31.3044786328       16.2558238257        4.0751573460
  O        32.2757493002       16.9217616079        9.4960373383
  O        29.7273908828       17.5080172065        9.0818493233
  O        29.8622452156       15.8148268441        6.6684611542
  O        31.4542110896       17.8819951841        6.8360234254
  O        31.1024608283       19.7100932453        9.4118380574
  O        28.8156500773       18.3868258131        6.5073283021
  O        39.4567504534       35.2438863812       11.9968477052
  O        19.1412695279        0.0045109583        3.9956325616
  O        41.9696059046       35.1727956010       12.0820520072
  O        21.6912257205       -0.0693567070        3.9010075792
  O        51.3651437899       18.6142804377       12.0002814123
  O        10.7510853583       18.7471782423        3.9100083864
  O        50.0795800875       16.4128120969       12.0866874350
  O         9.5245657155       16.4830495330        3.9963336514
 Zr         9.2972843288       16.0526907833       14.1774188963
 Zr        49.8370336188       16.0064849120        1.7513842199
 Zr        22.0733685516        0.0299912629       14.1838110849
 Zr        42.4610050387       35.1535155167        1.8060332701
 Zr        29.5994723055       19.0847051727       14.2276351010
 Zr        29.5727266067       19.1714824715        1.8658039743
 Zr        11.0385033160       19.0519199688        1.8328519686
 Zr        11.0444519013       19.1547729432       14.2457457057
 Zr        31.3665159360       16.1070497963        1.8554696782
 Zr        31.3782194860       16.0091029267       14.2224582373
 Zr        18.6012283866       -0.0010677285        1.7684020440
 Zr        18.5064419194       -0.0076298796       14.2086606731
 Zr        12.3027978671       16.3236041335       15.9851155191
 Zr        48.6173187809       18.8333157735        0.0150745290
 Zr        20.3152964142        2.4736843267       15.9850555255
 Zr        40.6436642423       32.6872949253       15.9730764988
 Zr        28.3464394312       16.3424230236        0.0824849922
 Zr        32.6162776214       18.8338994656        0.0484894186
  H        32.3539706442       18.1672684076        6.6106927046
  O        30.6610445501       14.7322977250        9.8160750361
  H        30.8170069898       15.2386474254       10.6754585892
  H        29.7489686148       14.4047597108        9.8829641249
  O        33.3312357025       15.0971370250        5.8225733418
  H        34.0751710261       15.6857815156        6.0241207600
  H        32.7628383836       15.6190490661        5.2035548834
  O        27.0248258006       20.2988576721        7.4058712357
  H        27.5471220888       19.5828052082        6.9641693419
  H        26.0991421239       20.0176813800        7.3422890538
  O        30.5844680964       20.5882759105        6.2489415801
  H        30.3538424216       20.0996106260        5.4040405168
  H        29.8828357843       21.2553487004        6.3440898588
  H        29.0948463007       19.8981852806        8.4070072757
  H        32.0471443217       15.4101898123        7.5286128069
