     586
 i =      232, E =     -4847.8353361453
  C        11.8586719176       14.0536180917       13.7364645534
  C        12.4562063082       12.8906089546       13.0181047375
  C        11.7044133942       12.1716025602       12.0766108252
  C        12.2807411652       11.1093759557       11.3842315949
  C        13.6213541980       10.7397074205       11.6118399413
  C        14.3546599060       11.4434070144       12.5850955398
  C        13.7818194604       12.5084187612       13.2765964453
  C        14.2608599450        9.6489867136       10.8384852564
  C        14.2563551208        9.6569374551        9.4167867765
  C        13.7432621248       10.7591011110        8.6628906618
  C        49.1268501520       21.2331949397       13.8745555720
  C        48.5501192113       22.4011478330       13.1474298504
  C        49.3002629145       23.0686772739       12.1666665194
  C        48.7333359488       24.1078379320       11.4334834595
  C        47.4027009324       24.5092558719       11.6619124864
  C        46.6715883636       23.8601146556       12.6751261090
  C        47.2340442642       22.8152036718       13.4044641217
  C        46.7724533688       25.5869575695       10.8646376472
  C        46.7615064957       25.5574216076        9.4428752975
  C        47.2615550768       24.4423794578        8.6993850330
  C        14.8602562026        8.5705568236        8.7035560704
  C        14.8914051621        8.5969276013       11.5151579116
  C        49.1132015113       21.2034723270        2.1504520298
  C        48.5277969383       22.3648077984        2.8776680057
  C        49.2671950713       23.0258819005        3.8702067441
  C        48.6908133801       24.0604136254        4.6016661642
  C        47.3602244988       24.4567724660        4.3637597190
  C        46.6395994090       23.8114570797        3.3406594757
  C        47.2132025334       22.7755720672        2.6088819698
  C        46.7217800818       25.5317641264        5.1547703505
  C        46.7336453173       25.5282175986        6.5764706301
  C        47.2492407091       24.4290666385        7.3328346780
  C        40.6330405141       17.1560752313        7.3261590079
  C        40.6542803287       17.1680505846        4.5176370780
  C        11.8829731064       14.0866328754        2.2905527592
  C        12.4723775479       12.9108064184        2.9948877930
  C        11.7147443922       12.1773942863        3.9207074787
  C        12.2813094345       11.0949265585        4.5891580706
  C        13.6202272688       10.7214539557        4.3575921090
  C        14.3583627087       11.4372446748        3.3970954868
  C        13.7929381776       12.5184264566        2.7244016290
  C        14.2537811015        9.6246245717        5.1279629560
  C        14.2526228853        9.6446169423        6.5498021371
  C        13.7427560756       10.7535893055        7.2968447359
  C        22.5101215790        3.2446161236       13.7474778246
  C        23.2206239809        4.3525383279       13.0464432079
  C        24.2157111668        4.0768784991       12.0971860734
  C        24.8374572783        5.1194873959       11.4147235688
  C        24.4796049815        6.4598408253       11.6615300311
  C        23.5127272830        6.7271320703       12.6476896356
  C        22.8864822934        5.6863006245       13.3284358009
  C        25.0800544436        7.5688427274       10.8852136428
  C        25.0516200448        7.5612441631        9.4635984215
  C        24.3497807478        6.5610516514        8.7181958913
  C        38.3042385548       31.9285145409       13.8428549293
  C        37.5801907332       30.8368027019       13.1317011788
  C        36.6239008000       31.1356878509       12.1492740569
  C        36.0136960702       30.1118074965       11.4299812463
  C        36.3449786144       28.7640739146       11.6716869639
  C        37.2714787451       28.4727722369       12.6905330574
  C        37.8859182741       29.4951763863       13.4084463928
  C        35.7489470776       27.6688598807       10.8746009435
  C        35.7812934698       27.6827792624        9.4533574464
  C        36.4850335471       28.6865281697        8.7160613830
  C        25.6739977290        8.6305738959        8.7423377777
  C        25.6746097954        8.6462800062       11.5546548871
  C        38.3288598219       31.9621523499        2.1606664905
  C        37.6086632881       30.8878415829        2.9008589652
  C        36.6833544695       31.1934971802        3.9104941902
  C        36.0770697203       30.1724626273        4.6394959216
  C        36.3820648814       28.8209638888        4.3818601724
  C        37.2838768279       28.5254211883        3.3413857313
  C        37.8924220431       29.5427550385        2.6138215036
  C        35.7799226335       27.7189852839        5.1656657527
  C        35.7971301285       27.7084206111        6.5873290039
  C        36.4924279945       28.6989032576        7.3495787974
  C        46.1356306798       26.6208433877        7.2866104103
  C        46.0876479560       26.5800073991        4.4787110010
  C        22.4592280519        3.2551643107        2.2621779776
  C        23.1506040172        4.3651928013        2.9855698929
  C        24.1519557599        4.0811849982        3.9274643871
  C        24.7768872719        5.1130648956        4.6234643149
  C        24.4203286963        6.4576629834        4.3988311179
  C        23.4418985427        6.7351142305        3.4256787190
  C        22.8121149147        5.7033964366        2.7306584801
  C        25.0481277108        7.5574195766        5.1724153028
  C        25.0358717563        7.5547110334        6.5949001196
  C        24.3402749838        6.5593743845        7.3515351041
  C        26.6211447017       17.8542226854       13.7817923954
  C        25.3165554283       17.8956604404       13.0528984288
  C        25.0676787472       18.8805416720       12.0830290365
  C        23.8558249238       18.8995729486       11.3944830736
  C        22.8567594352       17.9391747315       11.6541563409
  C        23.1037843435       16.9768620189       12.6519378427
  C        24.3171932506       16.9505575699       13.3371352926
  C        21.5828611104       17.9249875934       10.8914835276
  C        21.5820751872       17.8991949037        9.4689550107
  C        22.7864004435       17.7688553078        8.7071906657
  C        34.4201038170       17.2293596513       13.8817515120
  C        35.7142872326       17.1773782383       13.1433606966
  C        35.9201038342       16.2156955501       12.1417424308
  C        37.1057847513       16.2019060467       11.4130265503
  C        38.1180022370       17.1478963676       11.6678194632
  C        37.9153533518       18.0882117685       12.6957710053
  C        36.7268880290       18.1079094972       13.4214284864
  C        39.3755937142       17.1566950800       10.8877869392
  C        39.3735146766       17.1798432791        9.4664665486
  C        38.1688286231       17.3155704093        8.7076915281
  C        20.3341846891       17.9194524616        8.7624528604
  C        20.3584978628       17.9320653866       11.5754775683
  C        34.4778066612       17.2487937355        2.1846567132
  C        35.7796274039       17.1709758120        2.9055755812
  C        35.9726153393       16.2186044405        3.9178475807
  C        37.1580622876       16.2038846443        4.6469901487
  C        38.1770010080       17.1396618027        4.3835224304
  C        37.9887873396       18.0657838169        3.3400130499
  C        36.8017471819       18.0869963517        2.6138443414
  C        39.4220687432       17.1639780429        5.1803347786
  C        39.3970195490       17.1854225556        6.6014204195
  C        38.1797254100       17.3165259553        7.3413173358
  C        35.1713548032       26.6265157100        7.2910996772
  C        35.1875057485       26.6501755451        4.4822665575
  C        26.5665586753       17.8223434293        2.3330454410
  C        25.2526243952       17.8698742702        3.0362200323
  C        24.9905763439       18.8699729346        3.9846934141
  C        23.7728209948       18.8939171252        4.6578353835
  C        22.7883736602       17.9175331381        4.4058987775
  C        23.0442649516       16.9431875832        3.4241585913
  C        24.2628772275       16.9169639195        2.7494377867
  C        21.5260879830       17.8960242670        5.1799925282
  C        21.5525160710       17.8827894744        6.6013813804
  C        22.7718095218       17.7611994958        7.3409647240
  C        14.0460983522       17.8283673471        2.2944116883
  C        15.3497487951       17.8838284453        3.0209550627
  C        15.6059084175       18.8849408739        3.9708838485
  C        16.8144325219       18.9040039912        4.6646296838
  C        17.8009163594       17.9247681237        4.4304362129
  C        17.5493579126       16.9478244670        3.4485757928
  C        16.3403569268       16.9241175313        2.7564879410
  C        19.0703752225       17.9059902399        5.1984850136
  C        19.0711254365       17.9012074340        6.6209432332
  C        17.8650342866       17.8037632962        7.3836467136
  C        46.8064144651       17.2196372388        2.1646737921
  C        45.5184783099       17.1617255854        2.9124825043
  C        45.3139791215       16.1895424285        3.9036824228
  C        44.1338755709       16.1771019757        4.6422413392
  C        43.1294247825       17.1368247358        4.4104309471
  C        43.3312936292       18.0884477616        3.3926865624
  C        44.5120223308       18.1050771126        2.6555067690
  C        41.8768293836       17.1547042130        5.1984144375
  C        41.8809910833       17.1606682003        6.6200348471
  C        43.0890280757       17.2517362961        7.3805263511
  C        20.3188087231       17.9096631406        7.3277258141
  C        20.2935172628       17.8870612071        4.5146236365
  C        46.7847759294       17.2310472377       13.8850801683
  C        45.4802347338       17.1268699439       13.1724410247
  C        45.2596301517       16.1334649981       12.2065097181
  C        44.0708868242       16.1122911107       11.4812695181
  C        43.0735998645       17.0813462123       11.7051952745
  C        43.2836758209       18.0426547462       12.7113713190
  C        44.4735188980       18.0705179743       13.4313727265
  C        41.8288815225       17.1134960038       10.9066586921
  C        41.8567240849       17.1374959408        9.4858521084
  C        43.0776897376       17.2379818159        8.7470842848
  C        46.1534450351       26.6372880245        8.7211495106
  C        46.1623831358       26.6559884783       11.5307859546
  C        14.0466903850       17.8318634499       13.7035851471
  C        15.3690405586       17.9059482986       13.0141479466
  C        15.6443771678       18.9200354324       12.0845380117
  C        16.8742950679       18.9561985183       11.4308480148
  C        17.8575043726       17.9773541006       11.6802997965
  C        17.5891790144       16.9926832241       12.6486292871
  C        16.3613755578       16.9560623149       13.3059312198
  C        19.1249024376       17.9494920245       10.9104623275
  C        19.0997915274       17.9223072618        9.4888371127
  C        17.8790559862       17.8134144956        8.7496293717
  C        28.8044680180       14.0923834456        2.3999935954
  C        28.1907046305       12.9176620078        3.0833984266
  C        28.9093827458       12.1808124037        4.0363165599
  C        28.3073820339       11.1063098372        4.6858844095
  C        26.9732354042       10.7467607967        4.4072946894
  C        26.2768077171       11.4640725671        3.4182332180
  C        26.8766024585       12.5381917701        2.7662794771
  C        26.3004760969        9.6696807721        5.1682380520
  C        26.2824061486        9.7001709835        6.5888920885
  C        26.7827313936       10.8158146185        7.3327325606
  C        32.1792733118       21.2431530263        2.1495393400
  C        32.7765277074       22.4076560239        2.8637048434
  C        32.0403456056       23.0699920873        3.8575182426
  C        32.6155979394       24.1069239384        4.5843919583
  C        33.9431703620       24.5070668703        4.3403188098
  C        34.6621785108       23.8624742619        3.3157031724
  C        34.0891529416       22.8209381960        2.5892272519
  C        34.5776715793       25.5775209787        5.1415677318
  C        34.5777403474       25.5435969224        6.5633056699
  C        34.0730529330       24.4262753230        7.3010503222
  C        25.6710454483        8.6237874780        7.3082101379
  C        25.6663155041        8.6172330588        4.4954996661
  C        32.1088386759       21.2304921575       13.8773049259
  C        32.7065514681       22.3730621292       13.1288305858
  C        31.9826778183       23.0240816859       12.1177923769
  C        32.5700167463       24.0492699881       11.3808672520
  C        33.8949926235       24.4537210432       11.6359314515
  C        34.6021689078       23.8153473752       12.6729940050
  C        34.0199221105       22.7843168272       13.4053718501
  C        34.5394916278       25.5318975376       10.8518233081
  C        34.5571451804       25.5211403060        9.4298022929
  C        34.0621761563       24.4163863058        8.6677411392
  C        40.6207961027       17.1485934696        8.7601386235
  C        40.5971771602       17.1405145131       11.5701235706
  C        28.7306693699       14.0686205919       13.8154341674
  C        28.1156677090       12.9333330969       13.0659007270
  C        28.8576651505       12.2119101283       12.1168408774
  C        28.2703141579       11.1624320029       11.4135956602
  C        26.9268272658       10.8015369760       11.6422606565
  C        26.2017682392       11.5095769310       12.6183964705
  C        26.7854814410       12.5638345600       13.3181179621
  C        26.2843137523        9.7080669618       10.8743527880
  C        26.2767291150        9.7192149475        9.4534268365
  C        26.7780863500       10.8255756026        8.6983124363
  C        18.1352497910        3.1808850891        2.3223029977
  C        17.4058431394        4.2780942904        3.0208094075
  C        16.3904411473        3.9997040730        3.9486730921
  C        15.7426749898        5.0396621966        4.6121636228
  C        16.0942225135        6.3834363172        4.3721903100
  C        17.0831225803        6.6529830760        3.4079151588
  C        17.7322211559        5.6156658627        2.7428549488
  C        15.4700123620        7.4911651776        5.1352459629
  C        15.4853608933        7.4904734523        6.5569588993
  C        16.1868004775        6.4968000787        7.3101643476
  C        42.9459569927       31.8593765253        2.0779997610
  C        43.6462322794       30.7718126223        2.8219620234
  C        44.5919965614       31.0930659166        3.8078531434
  C        45.1976053434       30.0874810193        4.5555197189
  C        44.8708853821       28.7344451456        4.3408507233
  C        43.9448254134       28.4201718207        3.3278315878
  C        43.3360918497       29.4253443438        2.5797821200
  C        45.4885048143       27.6551529103        5.1440102132
  C        45.4928239075       27.6809053743        6.5656931931
  C        44.8057074155       28.6889302050        7.3123196761
  C        14.8565320769        8.5630387109        7.2693339812
  C        14.8748009084        8.5629968717        4.4566613224
  C        42.9464836497       31.9613480626       13.8038554003
  C        43.6916947513       30.8853480516       13.0904129962
  C        44.6563658865       31.1912525052       12.1181586093
  C        45.2778562741       30.1716652046       11.4004394282
  C        44.9540034280       28.8213365998       11.6379924683
  C        44.0204407471       28.5236787784       12.6487043048
  C        43.3921856122       29.5404335694       13.3608826283
  C        45.5630834790       27.7239868096       10.8527396566
  C        45.5334142271       27.7173933440        9.4314495279
  C        44.8270090538       28.7075694302        8.6785043009
  C        35.1621405703       26.6143044388        8.7257349417
  C        35.1469107900       26.5921761022       11.5352440284
  C        18.1482813702        3.2468423571       13.7015337637
  C        17.4294995740        4.3436421272       12.9924202615
  C        16.4146721298        4.0523444060       12.0684346699
  C        15.7663427326        5.0829498391       11.3930224452
  C        16.1205938968        6.4282448586       11.6160727872
  C        17.1113972707        6.7116526053       12.5739367347
  C        17.7590563258        5.6827729367       13.2537412088
  C        15.4902361643        7.5239717033       10.8436010562
  C        15.4962818221        7.5073558744        9.4224710337
  C        16.1929827936        6.5056146014        8.6757686289
  H        10.6722264204       12.4656537910       11.8997834192
  H        11.6943534535       10.5507860849       10.6578527186
  H        15.3917467439       11.1689062570       12.7666408835
  H        14.3513160516       13.0718445953       14.0118561723
  H        13.3761698422       11.6311740199        9.1962343847
  H        50.3230577943       22.7488042957       11.9821071598
  H        49.3199044939       24.6232741740       10.6760863834
  H        45.6419764502       24.1606253757       12.8580482622
  H        46.6629225906       22.2897334774       14.1663154223
  H        47.6301466955       23.5760279437        9.2410747382
  H        14.8715030691        8.5881289982       12.6034581673
  H        50.2873912183       22.7033370283        4.0648364164
  H        49.2693059099       24.5761552598        5.3649009118
  H        45.6100098916       24.1082872623        3.1519644875
  H        46.6522266781       22.2530475695        1.8376778264
  H        47.6080476344       23.5519690138        6.8019162166
  H        40.6621750247       17.1257203626        3.4302044839
  H        48.6869624679       14.0950002371       15.7948933324
  H        10.6811758819       12.4662929999        4.0978481328
  H        11.6893975655       10.5243382346        5.3016052762
  H        15.3939025575       11.1595703931        3.2114501860
  H        14.3653455192       13.0880638189        1.9961305431
  H        13.3758988001       11.6221653453        6.7581587998
  H        47.9302189977       14.2181529866        1.7159902884
  H        47.7800137686       14.3733945584       14.4898950101
  H        49.0839298169       18.5525329619        2.8724789501
  H        10.4159569080       14.1343218476        0.0037558643
  H        24.4795013302        3.0393475835       11.9043157562
  H        25.6092135945        4.9053770243       10.6785262125
  H        23.2283918631        7.7587631060       12.8444488902
  H        22.1174818487        5.8829367239       14.0714658470
  H        23.7880138817        5.8050971753        9.2590761849
  H        36.3836306409       32.1776893691       11.9516082388
  H        35.2715914658       30.3466787486       10.6701306193
  H        37.5346463794       27.4349508468       12.8841857919
  H        38.6270727803       29.2783252615       14.1739909160
  H        37.0502019439       29.4364011311        9.2618658398
  H        25.7095172016        8.6310055364       12.6425158055
  H        36.4606753354       32.2370048140        4.1215030388
  H        35.3543778236       30.4141875320        5.4156948909
  H        37.5303316513       27.4858384481        3.1358709311
  H        38.6118921427       29.3200515844        1.8297209962
  H        37.0642527203       29.4579235784        6.8235349679
  H        46.1088634745       26.5872578478        3.3906701870
  H        44.6680724120       35.1160206383       15.8088019783
  H        24.4309243163        3.0434495036        4.0956694285
  H        25.5571570984        4.8866821326        5.3470026831
  H        23.1554023360        7.7690344663        3.2442377071
  H        22.0405288492        5.9135233014        1.9935985919
  H        23.7704883589        5.8025803716        6.8200977614
  H        44.9534381655       34.3900578671        1.7000226966
  H        44.9013965020       34.2067292916       14.4853552114
  H        40.6655824591       33.2085071159        2.8579580876
  H        23.1503582474        1.9573933838        0.0101063934
  H        25.8337935823       19.6285382770       11.8879701323
  H        23.6684225876       19.6695446456       10.6490803440
  H        22.3442829961       16.2262153305       12.8611094898
  H        24.5177336667       16.1949414302       14.0931667474
  H        23.7292302305       17.6433657187        9.2320208376
  H        35.1354361850       15.4888758603       11.9454030747
  H        37.2640204935       15.4498285538       10.6431424140
  H        38.6895063478       18.8260333852       12.8962099581
  H        36.5536046126       18.8481131378       14.1991484357
  H        37.2295694561       17.4466221891        9.2370202451
  H        20.3667571093       17.9761533558       12.6631993247
  H        35.1778147647       15.5093655244        4.1389114662
  H        37.3030606950       15.4633590001        5.4303751130
  H        38.7692130028       18.7951906938        3.1333602268
  H        36.6332765738       18.8214276631        1.8297745320
  H        37.2483869993       17.4460595864        6.7977297207
  H        35.1527271745       26.6803745871        3.3948976211
  H        28.5062245064       21.0727982517       15.9627502357
  H        25.7536977191       19.6203579133        4.1773939264
  H        23.5692322757       19.6725419087        5.3897486339
  H        22.2918473991       16.1830665299        3.2241994830
  H        24.4775608357       16.1522936259        2.0067950796
  H        23.7028011540       17.6305535932        6.7971892777
  H        28.9997825081       21.7202166453        1.7656038452
  H        29.1656692567       21.7360862041       14.6206543729
  H        32.1223254386       18.5840991265        2.9816377300
  H        27.3746461392       19.0251527492        0.0853161914
  H        14.8475473656       19.6438248840        4.1501228713
  H        17.0095400823       19.6867518123        5.3945479329
  H        18.3006752403       16.1839720117        3.2588283027
  H        16.1345544079       16.1566771516        2.0140995397
  H        16.9216783377       17.6892565596        6.8576408585
  H        46.0967324920       15.4575083696        4.0880968443
  H        43.9747115144       15.4155682360        5.4024876878
  H        42.5630541488       18.8370127390        3.2103980262
  H        44.6852324973       18.8540179007        1.8863487149
  H        44.0318395479       17.3628964926        6.8525444716
  H        20.2860908661       17.9199669023        3.4265913347
  H        46.0356322830       15.3933352372       12.0248810057
  H        43.9026090680       15.3423557822       10.7314285343
  H        42.5182045031       18.7946252383       12.8911842590
  H        44.6578791218       18.8326012181       14.1845070329
  H        44.0117699253       17.3375066620        9.2923308945
  H        46.1991311755       26.6824309486       12.6182350363
  H        52.7411952806       21.0626660314        0.1998167842
  H        14.8845153102       19.6738834758       11.8904573910
  H        17.0858786664       19.7457585771       10.7129524692
  H        18.3390248377       16.2303335620       12.8498249714
  H        16.1397420005       16.1824731537       14.0371332672
  H        16.9462078945       17.7062956795        9.2949526457
  H        52.3227253375       21.6732982389       14.2889769238
  H        52.0133298632       21.7021304672        1.5007886185
  H        49.0672399367       18.6075795104       13.1990334972
  H        13.2477499268       19.0162822891       15.9721706256
  H        29.9360965290       12.4656514615        4.2552459998
  H        28.8656807962       10.5331524974        5.4229298608
  H        25.2457416338       11.1961234319        3.1968698066
  H        26.3367646055       13.1149690011        2.0193344477
  H        27.1443294558       11.6841960640        6.7902956156
  H        31.0258641050       22.7400339471        4.0639437935
  H        32.0401497526       24.6179936111        5.3529566400
  H        35.6902552547       24.1619223014        3.1226606132
  H        34.6502920040       22.2967026539        1.8191273358
  H        33.7136885594       23.5578839493        6.7560371091
  H        25.7001847282        8.5946823701        3.4076896825
  H        30.9623947512       22.7098734525       11.9112568642
  H        32.0008697077       24.5535689839       10.6030863726
  H        35.6281195687       24.1159381637       12.8752868735
  H        34.5713506150       22.2695533858       14.1887001131
  H        33.6954625947       23.5400156469        9.1945833996
  H        40.5880374925       17.0946045727       12.6574693564
  H        32.5266760514       14.1358013945        0.3626418358
  H        29.9033345117       12.4709038644       11.9625840927
  H        28.8527204178       10.5979628539       10.6883307419
  H        25.1626444828       11.2429269245       12.8003773411
  H        26.2227950814       13.1258396305       14.0599287455
  H        27.1330849832       11.7025431131        9.2315729569
  H        33.2947719596       14.1702637014       14.4323466996
  H        33.4075173768       14.4264876300        1.6860778511
  H        32.0991464324       18.5380109147       13.1564805639
  H        30.2338692020       14.1898326063        0.1258337590
  H        16.1185939162        2.9631873805        4.1353302184
  H        14.9534009077        4.8202212692        5.3280021460
  H        17.3650524581        7.6859182118        3.2143814711
  H        18.5137883902        5.8183380606        2.0145156677
  H        16.7531952240        5.7393250950        6.7766901104
  H        44.8285302264       32.1401051781        3.9819199013
  H        45.9376153453       30.3411149908        5.3113611115
  H        43.6818138611       27.3781492015        3.1579233348
  H        42.5992479599       29.1900016524        1.8153415563
  H        44.2302005390       29.4365905616        6.7740279649
  H        14.8508762363        8.5462061664        3.3684415813
  H        44.8999849681       32.2339175755       11.9267482352
  H        46.0248031057       30.4128390421       10.6472295044
  H        43.7633824709       27.4839597261       12.8401882031
  H        42.6456077003       29.3175712092       14.1192279710
  H        44.2683625193       29.4703552348        9.2130825091
  H        35.1018339065       26.6062461315       12.6225877573
  H        36.6048030679       35.1338747649        0.1858476442
  H        16.1438503038        3.0127436574       11.8984185920
  H        14.9742662077        4.8560237381       10.6826856117
  H        17.3943413979        7.7471921334       12.7513038601
  H        18.5414082538        5.8932610364       13.9790537734
  H        16.7642058387        5.7552130098        9.2141942468
  H        36.2776646948       34.4828714013       14.2678991435
  H        36.3797504633       34.2096757510        1.5052797957
  H        40.5802107466       33.2020487797       13.1485034086
  H        17.4704936474        1.9472275595       15.9689083814
  H        28.7743779412       19.0142750518        4.3844972068
  H        29.9184076966       20.0601822477       11.8126697106
  H        31.6879420629       16.2969760721       11.1668602491
  H        31.0407864960       15.5358094213        4.5324620098
  H        28.2386937746       17.4950308400        6.8858168124
  H        29.3313589255       15.2649928349        6.4960988458
  H        31.7164152649       19.9579650581        9.0647807334
  H        32.7983319700       17.1653021198        9.6302530901
  H        27.3554233797       17.5982731355       10.5203368362
  H        18.8527887470        0.8688767001        4.3402966284
  H        40.5276850607       35.2292373860       11.9470369308
  H        42.3236048296       34.4183693984       11.5859304753
  H        22.0879887764        0.6917659609        4.3568494710
  H        11.5968799995       18.7131267692        4.3875755338
  H        52.2649984422       18.4311443872       11.6721378884
  H        49.2551694732       16.4771478977       11.5794501019
  H        10.1501966960       15.7982998103        4.2980565169
  H        50.8501074809       17.6924161955       11.9492055090
  H        10.0461535071       17.3945787291        4.0570395861
  H        20.2139107617        0.0021508926        4.0472560312
  H        39.1832677930       36.1243835574       11.6814835538
 Ni        30.7333971079       18.2810854532       10.5757142184
 Ni        30.9865622102       16.3308436588        8.0806652346
 Ni        29.8840914578       19.0681920658        7.7492227909
 Ni        30.2273804228       17.4934209201        5.4086819243
  O        10.6499412792       14.3650995073       13.4806998703
  O        12.6131998977       14.6575121721       14.5787675208
  O        49.1480647453       16.8458991974       15.9845824877
  O        50.3502892279       20.9358389496       13.6429290976
  O        48.3485864167       20.5933552667       14.6607970982
  O        11.0516798471       17.0538803831       14.4955135900
  O        50.3210226300       20.8816947059        2.4119068300
  O        48.3467813507       20.5867793524        1.3322515312
  O        49.5438249078       18.2484949171        2.0733189445
  O        12.3592170229       18.6246860961        0.0048003041
  O        48.6932538902       14.1486039477       14.7461564686
  O         8.2099147379       14.2103301650        1.3276206336
  O        10.7353938577       14.5066982121        2.6694263802
  O        12.5718724946       14.5828116393        1.3335886785
  O        22.8447749796        2.0441935608       13.4817245497
  O        21.6049019557        3.5921454594       14.5850845948
  O        42.0581395849       34.1372097404       15.9738213333
  O        37.9819593246       33.1367645037       13.5671728845
  O        39.2188165080       31.5764016504       14.6621504391
  O        20.3082628426        1.0392485145       14.4967359379
  O        38.0247809588       33.1859022198        2.4201753783
  O        39.2196813019       31.5843050541        1.3309965756
  O        40.6522898998       33.7693257752        2.0654149942
  O        18.2553945025        1.3763479266        0.0018194424
  O        44.6221946900       35.1005765168       14.7535821228
  O        24.2053638765        0.0000519501        1.3259455150
  O        22.7528821512        2.0579042311        2.5889145001
  O        21.6239409935        3.5956657929        1.3467173253
  O        27.4942024135       18.7444597508       13.4907028797
  O        26.7661541467       16.9258481390       14.6514358844
  O        30.6421110851       19.3525042827        0.0701261419
  O        33.5444212178       16.3401252218       13.5855130681
  O        34.2721473297       18.1697040266       14.7339315301
  O        29.5785933664       17.0529001379       14.5659955907
  O        33.6173614114       16.3330444235        2.4195477324
  O        34.3033580438       18.2491519282        1.4099525018
  O        31.6515570605       18.3167216185        2.1750855086
  O        30.3292504559       15.1561901715        0.1452912266
  O        28.5552153528       21.0279454084       14.8951851220
  O        28.5122133272       20.9551832685        1.4156446152
  O        27.4556092482       18.6752300851        2.6676447300
  O        26.6926601640       16.9272590631        1.4209569503
  O        13.1485991963       18.6929393794        2.5925796434
  O        13.9192353524       16.9162276502        1.4100832040
  O        50.5962874625       19.3502417670        0.0253680871
  O        47.6838708328       16.3268805810        2.4223080091
  O        46.9523239968       18.1758633052        1.3293859414
  O        11.0698497145       17.0155178107        1.4947264309
  O        47.6752445194       16.3356463853       13.6477889867
  O        46.9278085220       18.2359050635       14.6599186993
  O        49.5687098626       18.3176859580       13.9770937407
  O        10.3187023217       15.1001797450        0.0021355328
  O        52.6707847518       21.0278955728        1.2469299019
  O        12.1468632802       20.8911562290       14.6680982450
  O        13.1090839814       18.6135057063       13.3202343260
  O        13.9576281707       16.9871017709       14.6601517451
  O        29.9883946843       14.4416666514        2.7438015527
  O        28.0881399071       14.6544385119        1.5010082920
  O        32.1444225178       16.8557459408        0.1037597945
  O        30.9659442650       20.9513084143        2.4147196576
  O        32.9447847662       20.6017268373        1.3420722625
  O        29.5692873292       17.0772542830        1.5904439336
  O        30.8764042104       20.9536067598       13.6627875677
  O        32.8782266510       20.5846750583       14.6641152729
  O        31.6773938683       18.2475856662       13.9837992118
  O        28.2637321698       18.6353007199        0.0839067140
  O        32.4960384929       14.2109965694        1.4094148012
  O        32.4083736615       14.2129919737       14.8278596615
  O        29.9108724726       14.4387676963       13.4840015203
  O        28.0396537048       14.5851724272       14.7528517874
  O        17.8891823666        1.9665759987        2.6679511229
  O        18.9561852804        3.5271322336        1.4131289247
  O        39.1686749221       34.1388424267        0.0022655668
  O        43.2802391626       33.0589671057        2.3367669329
  O        42.0346020352       31.5064625974        1.2467092766
  O        20.3175396586        1.0365306716        1.4855072530
  O        43.2760441564       33.1825023735       13.5698083805
  O        42.0052861492       31.5841047573       14.5778996251
  O        40.5789938887       33.7748531613       13.9305421014
  O        22.3671137393        1.3844060575        0.0029534795
  O        36.6727097047       35.0998129523        1.2383926022
  O        16.4454926700        0.0641382161       14.6631134832
  O        17.9364327363        2.0432952692       13.3212458201
  O        18.9189538389        3.5931126832       14.6607771820
  O        29.8154574154       19.1270697197       12.0758810718
  O        29.7027869275       19.0504469242        4.0741517778
  O        31.2586051811       16.0349582152       12.0833509348
  O        31.3475396256       16.3482194943        4.0765394574
  O        31.8968432995       16.8521027772        9.8132319763
  O        27.6251791192       17.5210844627        9.5863160406
  O        30.2024283457       15.6839421266        6.4124494828
  O        31.3884846336       18.0184693219        6.9873131670
  O        30.7942466597       19.7796099689        9.3152283210
  O        28.6462578360       18.2454835921        6.4179967691
  O        39.4567186318       35.2437985186       11.9968590376
  O        19.1409006481        0.0044176374        3.9957313826
  O        41.9697199881       35.1727513043       12.0821681115
  O        21.6913271549       -0.0693336463        3.9009694411
  O        51.3651953380       18.6142810297       12.0003335160
  O        10.7510999585       18.7472039134        3.9099956037
  O        50.0796444164       16.4128010925       12.0866497357
  O         9.5244468228       16.4831395970        3.9963170149
 Zr         9.2966472368       16.0528967894       14.1773742227
 Zr        49.8362815222       16.0066802285        1.7514876859
 Zr        22.0729246419        0.0289725116       14.1841935518
 Zr        42.4606555988       35.1525752003        1.8059163210
 Zr        29.5953276620       19.0885282980       14.2542102389
 Zr        29.5687299242       19.1791141432        1.8878495066
 Zr        11.0380403857       19.0519729183        1.8327399873
 Zr        11.0440853446       19.1548174227       14.2458912014
 Zr        31.3443004132       16.1116971659        1.9541714837
 Zr        31.4281202455       16.0183844824       14.3681965199
 Zr        18.6006343925       -0.0020038312        1.7684907958
 Zr        18.5059253630       -0.0085984099       14.2085027416
 Zr        12.3021233193       16.3238392976       15.9850567300
 Zr        48.6165381005       18.8331304190        0.0152799053
 Zr        20.3139176720        2.4721553908       15.9853678103
 Zr        40.6431115141       32.6862796584       15.9731686004
 Zr        28.3486332644       16.3497185164        0.0981454615
 Zr        32.6215105371       18.8511715081        0.0626556271
  H        32.2505012865       18.4525006345        6.8841548170
  O        30.7521161989       14.2911462087        9.0771080274
  H        31.3494190698       14.3846228985        9.8403995932
  H        29.8779809400       14.0913821532        9.4547813805
  O        33.2929147160       15.3147638045        6.6541501918
  H        33.0062501336       15.8673379900        5.9009275855
  H        32.5094943706       14.7506868297        6.7924206594
  O        28.0069371229       20.0662738490        8.2512909519
  H        27.6864386225       19.6785819240        7.4050750815
  H        27.7023140001       19.3923660457        8.9080859773
  O        30.3751537003       20.8072299898        6.1581774613
  H        30.1724816389       20.3210712108        5.3121159206
  H        29.6594102556       21.4529352763        6.2658388157
  H        30.4985143734       15.4356947046       11.9449314705
  H        28.6174530604       17.5377806610        9.6306952884
