     586
 i =      146, E =     -4847.8255339181
  C        11.8586059824       14.0538730496       13.7363268566
  C        12.4561178760       12.8906764467       13.0181146905
  C        11.7044101066       12.1717109461       12.0765402227
  C        12.2807432728       11.1094310225       11.3842198346
  C        13.6213786657       10.7398333745       11.6117928977
  C        14.3546803346       11.4436313443       12.5849770906
  C        13.7818279818       12.5086996887       13.2764014487
  C        14.2609252447        9.6490763786       10.8384903246
  C        14.2565251331        9.6570138849        9.4167855483
  C        13.7435606645       10.7592431141        8.6628954722
  C        49.1266839665       21.2328461817       13.8742622366
  C        48.5502617127       22.4013756860       13.1477804932
  C        49.3002079045       23.0684912316       12.1665855232
  C        48.7334069741       24.1078341704       11.4335486335
  C        47.4027689551       24.5092701596       11.6619496305
  C        46.6717464155       23.8603875122       12.6754023154
  C        47.2341173252       22.8153219353       13.4045945500
  C        46.7725250539       25.5870595474       10.8647469643
  C        46.7616148715       25.5575641294        9.4429655141
  C        47.2616429656       24.4425300181        8.6994506928
  C        14.8604004957        8.5705911800        8.7035838669
  C        14.8913270782        8.5969557168       11.5152003778
  C        49.1131334911       21.2033934252        2.1504523950
  C        48.5276145365       22.3646260457        2.8778289804
  C        49.2671578701       23.0260168657        3.8700580323
  C        48.6907685688       24.0605745036        4.6014933965
  C        47.3600666051       24.4566768913        4.3638030338
  C        46.6392698842       23.8110563382        3.3410213726
  C        47.2128982559       22.7751513842        2.6092696010
  C        46.7216544957       25.5317075794        5.1548274617
  C        46.7336698952       25.5283133736        6.5765311912
  C        47.2493059898       24.4291946950        7.3329001695
  C        40.6193329163       17.1461126051        7.3084723787
  C        40.6337473384       17.1321374863        4.4992822945
  C        11.8828341595       14.0866263390        2.2905004707
  C        12.4724788360       12.9110044810        2.9950870703
  C        11.7147944024       12.1773222233        3.9206373429
  C        12.2814737502       11.0948979448        4.5890856709
  C        13.6204582062       10.7216109275        4.3576445681
  C        14.3586102019       11.4376738124        3.3973751324
  C        13.7930983555       12.5188144437        2.7246781328
  C        14.2540929307        9.6247748817        5.1279803622
  C        14.2529171185        9.6447340231        6.5498219663
  C        13.7431270996       10.7537470391        7.2968496006
  C        22.5152370074        3.2474479005       13.7486061659
  C        23.2343634806        4.3567698153       13.0536026428
  C        24.2428531639        4.0821564104       12.1177489961
  C        24.8730615174        5.1242681136       11.4408318232
  C        24.5107756687        6.4659060012       11.6768161617
  C        23.5311088306        6.7326131005       12.6509808849
  C        22.8971177092        5.6919055193       13.3267350791
  C        25.1164215379        7.5732967171       10.8974496890
  C        25.0901647621        7.5579199056        9.4748115946
  C        24.3881514525        6.5541656932        8.7337905176
  C        38.3019742973       31.9291997314       13.8455552844
  C        37.5719298042       30.8385170967       13.1394071721
  C        36.6123203755       31.1395623858       12.1608004511
  C        35.9972752253       30.1172257002       11.4438786240
  C        36.3280098822       28.7693050866       11.6839414199
  C        37.2571161380       28.4754509483       12.6994952225
  C        37.8758608327       29.4963805476       13.4155417890
  C        35.7329442569       27.6753330131       10.8858582559
  C        35.7650586973       27.6926423222        9.4645407645
  C        36.4609725228       28.7024766781        8.7279223359
  C        25.7109828326        8.6243971654        8.7468576334
  C        25.7110765138        8.6561019164       11.5603078449
  C        38.3278353031       31.9627687853        2.1612744473
  C        37.6017180190       30.8932423650        2.9032138384
  C        36.6774500825       31.2086690341        3.9110531015
  C        36.0619269264       30.1950722138        4.6427598211
  C        36.3560203086       28.8405076551        4.3897480494
  C        37.2571723270       28.5350730478        3.3510695065
  C        37.8753268692       29.5452141637        2.6208473139
  C        35.7461617578       27.7433237311        5.1757066575
  C        35.7717469149       27.7278615883        6.5976399158
  C        36.4653482833       28.7182770419        7.3611778251
  C        46.1357115741       26.6209715696        7.2866680432
  C        46.0874606060       26.5799069302        4.4787604890
  C        22.4591943881        3.2551150994        2.2642389513
  C        23.1526475028        4.3624299997        2.9908280284
  C        24.1526968270        4.0728695749        3.9326147414
  C        24.7821296030        5.1005536462        4.6309359344
  C        24.4308041171        6.4470886139        4.4097996269
  C        23.4523239335        6.7299902738        3.4380056245
  C        22.8179918978        5.7024684376        2.7405893683
  C        25.0672142219        7.5440166525        5.1808428029
  C        25.0650397971        7.5420690192        6.6038296554
  C        24.3728326571        6.5490991342        7.3669076645
  C        26.6241180640       17.8578137770       13.7805528254
  C        25.3180588476       17.9030958318       13.0597896407
  C        25.0701509230       18.8790469893       12.0810606258
  C        23.8566726845       18.8978947775       11.3966825288
  C        22.8558628512       17.9410103896       11.6633684668
  C        23.1007952630       16.9882650723       12.6712232235
  C        24.3142538727       16.9658378175       13.3564288525
  C        21.5832456329       17.9214148167       10.8981292820
  C        21.5834307252       17.8926722375        9.4751406152
  C        22.7880794508       17.7628307970        8.7141607292
  C        34.4202206890       17.2360727962       13.8770666478
  C        35.7103239542       17.1908676344       13.1346951321
  C        35.9218163881       16.2301388602       12.1329730069
  C        37.1075325313       16.2210157939       11.4045665856
  C        38.1159311650       17.1723305824       11.6568573106
  C        37.9082586032       18.1129723294       12.6839500936
  C        36.7195547949       18.1272191665       13.4097199275
  C        39.3737095466       17.1800181214       10.8752851234
  C        39.3671788891       17.1954700466        9.4533283505
  C        38.1616754453       17.3365192071        8.6966742996
  C        20.3359278994       17.9098055992        8.7672161750
  C        20.3578139613       17.9281189387       11.5803885023
  C        34.4267018123       17.2168766042        2.2292435298
  C        35.7359438528       17.1306388647        2.9292662314
  C        35.9220431926       16.2065680221        3.9691176843
  C        37.1224492095       16.1927001790        4.6742515324
  C        38.1554082780       17.0995705160        4.3714940371
  C        37.9732446960       17.9899525186        3.2951587856
  C        36.7772454896       18.0091166566        2.5844942051
  C        39.4023942855       17.1356135888        5.1643327381
  C        39.3812294431       17.1756140733        6.5864253006
  C        38.1678693096       17.3268018303        7.3300214336
  C        35.1558036347       26.6395281472        7.3008268784
  C        35.1401348014       26.6821336320        4.4931481484
  C        26.5672667025       17.8250562203        2.3348826099
  C        25.2560496982       17.8701088205        3.0403804485
  C        24.9956325265       18.8659729998        3.9945777013
  C        23.7778332999       18.8864286058        4.6681912226
  C        22.7925484873       17.9119966925        4.4118762169
  C        23.0478220079       16.9413317116        3.4258315247
  C        24.2661842105       16.9172544112        2.7510965598
  C        21.5295890197       17.8876443746        5.1852227916
  C        21.5552292292       17.8739957807        6.6068946021
  C        22.7739473577       17.7552568399        7.3477924084
  C        14.0462909287       17.8266552179        2.2962328049
  C        15.3504010560       17.8798113123        3.0231839343
  C        15.6095313681       18.8800727557        3.9732757414
  C        16.8184808037       18.8963948618        4.6667885744
  C        17.8030304780       17.9147473233        4.4335642263
  C        17.5481334205       16.9380306556        3.4521146975
  C        16.3387777165       16.9172091720        2.7600781859
  C        19.0731496600       17.8948932582        5.2019577750
  C        19.0736310981       17.8897583331        6.6246171324
  C        17.8672796463       17.7921163539        7.3867360592
  C        46.8024548865       17.2165679139        2.1615521625
  C        45.5085513916       17.1492528562        2.9004985807
  C        45.3000137033       16.1685788409        3.8828380147
  C        44.1152161516       16.1465124943        4.6140586916
  C        43.1094801865       17.1055603082        4.3854451524
  C        43.3127089347       18.0623415288        3.3726861056
  C        44.4980197986       18.0882727630        2.6423690161
  C        41.8578658679       17.1235187161        5.1762794359
  C        41.8653205455       17.1366702682        6.5981626206
  C        43.0760966481       17.2244841664        7.3541630199
  C        20.3210447737       17.8996805265        7.3322903377
  C        20.2970444602       17.8768002840        4.5190813906
  C        46.7828301362       17.2326283883       13.8815627155
  C        45.4810521334       17.1349081900       13.1595859226
  C        45.2563524715       16.1380108431       12.1976316318
  C        44.0693493671       16.1194277798       11.4683742460
  C        43.0752650280       17.0941438886       11.6837414031
  C        43.2904957198       18.0608355024       12.6838961730
  C        44.4779248970       18.0854899508       13.4086974458
  C        41.8282633786       17.1261212567       10.8867666334
  C        41.8507390252       17.1364479629        9.4651875800
  C        43.0697959714       17.2202844371        8.7210618772
  C        46.1535456278       26.6374257917        8.7212156636
  C        46.1624447476       26.6561127407       11.5308589914
  C        14.0462657501       17.8312127014       13.7036532323
  C        15.3683571652       17.9036442199       13.0142331423
  C        15.6449038379       18.9169160816       12.0842060338
  C        16.8750855812       18.9511411004       11.4310741229
  C        17.8570784859       17.9715590814       11.6820917136
  C        17.5870648646       16.9871882802       12.6501107080
  C        16.3590449866       16.9523011886       13.3068616911
  C        19.1251181806       17.9425157486       10.9138141621
  C        19.1010298565       17.9131202090        9.4923568240
  C        17.8807015507       17.8025944217        8.7527026737
  C        28.8050821350       14.0902494361        2.3982554042
  C        28.1959310698       12.9115783733        3.0772988218
  C        28.9237150875       12.1715548155        4.0213541577
  C        28.3277618487       11.0926001742        4.6694970960
  C        26.9913123926       10.7330274342        4.4012368842
  C        26.2851772313       11.4563907775        3.4233763958
  C        26.8786235364       12.5342419706        2.7712839493
  C        26.3235986450        9.6544086920        5.1660051932
  C        26.3138479435        9.6858258003        6.5867942142
  C        26.8173532887       10.8034174142        7.3246431960
  C        32.1534124721       21.2706580703        2.1600061412
  C        32.7350338935       22.4366467598        2.8778714373
  C        32.0305773686       23.0323648824        3.9348248238
  C        32.6058674407       24.0725364805        4.6578122988
  C        33.8992938272       24.5373093082        4.3516953865
  C        34.5840531052       23.9549096871        3.2672096431
  C        34.0118504301       22.9148612765        2.5408352826
  C        34.5415473921       25.6017348269        5.1516951573
  C        34.5659809787       25.5549897045        6.5730560187
  C        34.0940658183       24.4219923737        7.3087323725
  C        25.7041990851        8.6122142742        7.3121180896
  C        25.6831766769        8.6023466212        4.4987462997
  C        32.1061630022       21.2242796872       13.8731293054
  C        32.7004619323       22.3686980519       13.1280102390
  C        31.9853415810       23.0077215634       12.1028499961
  C        32.5750538403       24.0326642040       11.3675872169
  C        33.8929005968       24.4509114440       11.6394141517
  C        34.5888919560       23.8262509360       12.6924670643
  C        34.0061458143       22.7932629356       13.4209161818
  C        34.5371257563       25.5317884025       10.8595900661
  C        34.5619348472       25.5200508480        9.4379052668
  C        34.0904855512       24.4064050724        8.6749820486
  C        40.6121264302       17.1498729571        8.7432290899
  C        40.5980005572       17.1661856432       11.5537646687
  C        28.7642649810       14.1360519336       13.7301115361
  C        28.1523196673       12.9932600876       12.9945122769
  C        28.8898340899       12.2607841730       12.0499328128
  C        28.3052111124       11.1891946894       11.3780629584
  C        26.9664943451       10.8198394970       11.6247000167
  C        26.2470926729       11.5401175566       12.5967243965
  C        26.8290499560       12.6113318510       13.2715831995
  C        26.3236376504        9.7134610523       10.8732200622
  C        26.3151217670        9.7165748021        9.4516263459
  C        26.8142026875       10.8196462990        8.6898713105
  C        18.1352184844        3.1808975692        2.3221065655
  C        17.4059979920        4.2781704239        3.0206754033
  C        16.3906080819        3.9997819275        3.9485723761
  C        15.7429010205        5.0397264302        4.6121415428
  C        16.0943833479        6.3835175024        4.3721270221
  C        17.0831788713        6.6530711724        3.4077303707
  C        17.7322228174        5.6157620676        2.7426010335
  C        15.4702108374        7.4912329609        5.1352419795
  C        15.4855150257        7.4905098883        6.5569626151
  C        16.1867766073        6.4967377381        7.3102054416
  C        42.9456186064       31.8593345120        2.0783681040
  C        43.6462539428       30.7718103186        2.8219126695
  C        44.5919610857       31.0930606051        3.8078842842
  C        45.1977139243       30.0874475777        4.5553827943
  C        44.8707502906       28.7344252171        4.3409344769
  C        43.9445269451       28.4201831766        3.3280524479
  C        43.3356482436       29.4253691600        2.5801506990
  C        45.4884613033       27.6551450629        5.1440474672
  C        45.4928866825       27.6810017544        6.5657264056
  C        44.8059017361       28.6891187552        7.3123444903
  C        14.8567329154        8.5630987983        7.2693499167
  C        14.8750674845        8.5631286940        4.4566782133
  C        42.9468061433       31.9613765026       13.8042236918
  C        43.6915824308       30.8854566861       13.0903357784
  C        44.6564171023       31.1913956427       12.1182520895
  C        45.2778487525       30.1718489575       11.4004342189
  C        44.9541661378       28.8214818594       11.6380811492
  C        44.0205807260       28.5238010469       12.6487772511
  C        43.3923930186       29.5405063076       13.3610685663
  C        45.5631996713       27.7241389951       10.8527827652
  C        45.5335929746       27.7176000645        9.4314879789
  C        44.8272197942       28.7077933171        8.6785280836
  C        35.1529343994       26.6217450710        8.7352741502
  C        35.1347705346       26.5959727089       11.5453781743
  C        18.1478436918        3.2468413479       13.7020555620
  C        17.4298462073        4.3437259990       12.9923280281
  C        16.4148933135        4.0523370751       12.0684935249
  C        15.7666460943        5.0828743223       11.3929128669
  C        16.1204088543        6.4282508988       11.6163243227
  C        17.1109477356        6.7117276839       12.5744688311
  C        17.7585225717        5.6829191528       13.2544685551
  C        15.4902197163        7.5239773205       10.8436918132
  C        15.4962884768        7.5073246885        9.4225423301
  C        16.1929203359        6.5055444335        8.6758169419
  H        10.6721880035       12.4656938020       11.8997829535
  H        11.6943588473       10.5508213883       10.6578509865
  H        15.3918072367       11.1692430612       12.7664720633
  H        14.3512995279       13.0722002618       14.0116295033
  H        13.3765001670       11.6313306908        9.1962402134
  H        50.3230045114       22.7486309462       11.9819988792
  H        49.3199306972       24.6231196767       10.6760123923
  H        45.6421547594       24.1609062500       12.8584161855
  H        46.6631429794       22.2900596256       14.1667023335
  H        47.6302697371       23.5761872497        9.2411260474
  H        14.8713223037        8.5881756227       12.6035030750
  H        50.2874475632       22.7036590884        4.0645192008
  H        49.2693916021       24.5765207792        5.3644934470
  H        45.6095532398       24.1076073073        3.1525745634
  H        46.6517774612       22.2523776733        1.8383381316
  H        47.6081402880       23.5521093126        6.8019812088
  H        40.6383541454       17.0807682300        3.4122021746
  H        48.6869385878       14.0952688119       15.7949052789
  H        10.6811795845       12.4660839961        4.0977446424
  H        11.6895703912       10.5241472971        5.3014081784
  H        15.3942260695       11.1602259780        3.2118385685
  H        14.3655010684       13.0887088505        1.9966036139
  H        13.3763444621       11.6223365997        6.7581322417
  H        47.9300683330       14.2188282102        1.7159643334
  H        47.7798642993       14.3736307687       14.4900817878
  H        49.0821383304       18.5515389766        2.8719189976
  H        10.4156420041       14.1344420605        0.0039371528
  H        24.5117465670        3.0449665137       11.9297261855
  H        25.6539641374        4.9077911233       10.7149713617
  H        23.2408299932        7.7636996744       12.8421195672
  H        22.1186928023        5.8906517395       14.0594499194
  H        23.8297011289        5.7982685682        9.2782429214
  H        36.3734235486       32.1820051722       11.9641272414
  H        35.2530252886       30.3531620510       10.6864449644
  H        37.5193838342       27.4368978806       12.8905209055
  H        38.6190153461       29.2777155603       14.1785955741
  H        37.0230444699       29.4544575659        9.2739048019
  H        25.7443661480        8.6485865141       12.6483804790
  H        36.4627960673       32.2545600538        4.1182549503
  H        35.3397853708       30.4454896686        5.4166926371
  H        37.4952159384       27.4928524736        3.1488560065
  H        38.5937468026       29.3138339362        1.8381347773
  H        37.0315334190       29.4821459661        6.8359114913
  H        46.1084911278       26.5870425711        3.3907166413
  H        44.6679706298       35.1159597394       15.8087830604
  H        24.4280124836        3.0336848896        4.0977368090
  H        25.5620445530        4.8686362132        5.3531009506
  H        23.1691969257        7.7654409723        3.2599334505
  H        22.0467972596        5.9181274775        2.0046487141
  H        23.8017019984        5.7896880034        6.8404915519
  H        44.9531822214       34.3898516886        1.6999020622
  H        44.9008390133       34.2065881488       14.4853081328
  H        40.6652806907       33.2085963588        2.8579027441
  H        23.1509711199        1.9572298914        0.0107787570
  H        25.8405794868       19.6169288243       11.8697993922
  H        23.6717000066       19.6619520847       10.6446737388
  H        22.3401551504       16.2409712147       12.8878672910
  H        24.5106707560       16.2172237519       14.1203357259
  H        23.7312458891       17.6411978632        9.2393355221
  H        35.1430631083       15.4977224029       11.9352517866
  H        37.2686711097       15.4695003552       10.6348515925
  H        38.6771701595       18.8566355437       12.8831828626
  H        36.5439428119       18.8680059159       14.1863787901
  H        37.2250745781       17.4846298985        9.2266361867
  H        20.3640956097       17.9750903017       12.6680161800
  H        35.1183473391       15.5315255106        4.2638780651
  H        37.2637884005       15.4725283307        5.4772180825
  H        38.7653306531       18.6945315506        3.0501350394
  H        36.6166373570       18.7183190256        1.7762906044
  H        37.2351471697       17.4640170338        6.7903171482
  H        35.0897344410       26.7223121822        3.4067610204
  H        28.5109491022       21.0782028948       15.9651603972
  H        25.7548870713       19.6182248890        4.1968219878
  H        23.5790902897       19.6618447145        5.4048483043
  H        22.2955748658       16.1818300487        3.2229110909
  H        24.4800652179       16.1548551674        2.0059710478
  H        23.7061622865       17.6294846961        6.8052273639
  H        28.9659621143       21.7310216859        1.7878935279
  H        29.1438727758       21.7546724462       14.6135081918
  H        32.0810573330       18.5627764210        3.0099149300
  H        27.4033437339       19.0701651399        0.0846389775
  H        14.8534743274       19.6413149633        4.1523863286
  H        17.0154927335       19.6794090181        5.3959035092
  H        18.2971746863       16.1720203778        3.2619815102
  H        16.1312797248       16.1499429514        2.0179422027
  H        16.9242548624       17.6770885745        6.8602143875
  H        46.0837716913       15.4378740960        4.0681256144
  H        43.9535450071       15.3784272142        5.3672553455
  H        42.5417059191       18.8078308408        3.1891162899
  H        44.6714922024       18.8426248186        1.8785342177
  H        44.0181035997       17.3233786680        6.8223173098
  H        20.2903063935       17.9101752294        3.4310478121
  H        46.0279115021       15.3916626023       12.0223227201
  H        43.9001361388       15.3451800619       10.7231001060
  H        42.5293323539       18.8188772967       12.8564815535
  H        44.6625608249       18.8512684854       14.1580217253
  H        44.0070592031       17.3150215875        9.2616551263
  H        46.1991472037       26.6825207811       12.6183108677
  H        52.7412667765       21.0626935074        0.1998213891
  H        14.8858479043       19.6714347782       11.8896458517
  H        17.0879081361       19.7397680530       10.7125255482
  H        18.3359782412       16.2239543664       12.8514270571
  H        16.1360471637       16.1792534277       14.0381985400
  H        16.9476548829       17.6953732772        9.2976589056
  H        52.3230808145       21.6733466144       14.2887931323
  H        52.0136609581       21.7023702898        1.5008526987
  H        49.0672512998       18.6077355398       13.1989128913
  H        13.2476209062       19.0160452561       15.9724894300
  H        29.9511450457       12.4585786512        4.2356135715
  H        28.8930541928       10.5166108059        5.3990108145
  H        25.2516721803       11.1905914124        3.2111716082
  H        26.3306411923       13.1152243204        2.0336380512
  H        27.1781808414       11.6700083176        6.7788445812
  H        31.0532433618       22.6443149378        4.2113633431
  H        32.0545268562       24.5309342769        5.4754437581
  H        35.5880487350       24.3000455407        3.0289319630
  H        34.5484350788       22.4405334138        1.7227618106
  H        33.7535685847       23.5460117627        6.7641375600
  H        25.7090103486        8.5789092439        3.4107191346
  H        30.9688225636       22.6863572073       11.8887794232
  H        32.0144098781       24.5269801735       10.5772791926
  H        35.6080681061       24.1386141966       12.9102547764
  H        34.5504778757       22.2886783893       14.2156389395
  H        33.7501292223       23.5180164786        9.1992213226
  H        40.5925064605       17.1291352792       12.6414982985
  H        32.5373696380       14.1374966608        0.3796129352
  H        29.9306949033       12.5252443352       11.8750117106
  H        28.8852470400       10.6174723011       10.6567601094
  H        25.2112466567       11.2708664364       12.7932740478
  H        26.2677350948       13.1787907091       14.0102600447
  H        27.1694794137       11.7012538199        9.2149498890
  H        33.2867322476       14.1511826233       14.4205773949
  H        33.4003338170       14.3851152051        1.7241889759
  H        32.1185504103       18.5180410346       13.1646816226
  H        30.2303403131       14.1912109206        0.1324926267
  H        16.1187563871        2.9632767201        4.1352815787
  H        14.9536494969        4.8202689037        5.3280010624
  H        17.3650087865        7.6860124423        3.2140859535
  H        18.5136969320        5.8184288146        2.0141595806
  H        16.7531026597        5.7391793741        6.7767769909
  H        44.8287428832       32.1400682608        3.9817949231
  H        45.9378673066       30.3410274638        5.3111021932
  H        43.6812985015       27.3781888978        3.1583166810
  H        42.5986965588       29.1900302981        1.8158201737
  H        44.2303687481       29.4367685703        6.7740664393
  H        14.8511235179        8.5463738735        3.3684608105
  H        44.8998976977       32.2340783696       11.9267556414
  H        46.0247837600       30.4130485439       10.6472231415
  H        43.7636237128       27.4840694643       12.8403242876
  H        42.6458083229       29.3175805078       14.1193870409
  H        44.2685967033       29.4706143155        9.2130787609
  H        35.0852687955       26.6114077600       12.6324837267
  H        36.6046735312       35.1339255840        0.1859486591
  H        16.1444434177        3.0127037693       11.8980941999
  H        14.9747171757        4.8558714036       10.6824370431
  H        17.3934689959        7.7473152620       12.7522337062
  H        18.5406640112        5.8934655532       13.9799915699
  H        16.7640328732        5.7550468804        9.2142282721
  H        36.2775071520       34.4832271594       14.2677200262
  H        36.3796461232       34.2098736712        1.5053981243
  H        40.5800081017       33.2015763843       13.1490309940
  H        17.4708941494        1.9469552173       15.9689684363
  H        28.7748336913       19.0833969458        4.3632356261
  H        29.9025703708       19.8346035271       11.5973638044
  H        31.8519025596       15.9524241895       11.2866196298
  H        31.4868305863       15.7467261360        4.6529145787
  H        28.3387308777       17.6158742735        6.9452340923
  H        29.3971438674       15.4903126846        6.6674483849
  H        31.7929929554       19.6771563974        9.2591007634
  H        32.8154862579       16.9964165981        9.2049605767
  H        28.1667821168       17.6326269503       10.8106161494
  H        18.8531108203        0.8688872629        4.3404992276
  H        40.5271135304       35.2290483571       11.9468693474
  H        42.3242021291       34.4186105452       11.5860134935
  H        22.0881031815        0.6917994365        4.3567175930
  H        11.5970943241       18.7129071875        4.3873492317
  H        52.2650222424       18.4314544332       11.6721464003
  H        49.2549786475       16.4768896505       11.5794203601
  H        10.1499549857       15.7983248701        4.2981496516
  H        50.8502414539       17.6925506702       11.9490936884
  H        10.0460161393       17.3947581222        4.0569586545
  H        20.2142817015        0.0022626177        4.0472619093
  H        39.1827924067       36.1240745714       11.6811995683
 Ni        30.9907118089       17.9388336932       10.7433935633
 Ni        31.0754969096       16.3254841254        8.0760935705
 Ni        30.1749547296       18.6558211470        7.9174908801
 Ni        30.0192199905       17.4203403827        5.3252156629
  O        10.6497749848       14.3651705525       13.4808640085
  O        12.6130935638       14.6573991861       14.5788680419
  O        49.1477568567       16.8458913325       15.9846217853
  O        50.3503089718       20.9359524620       13.6431323668
  O        48.3486956244       20.5934484167       14.6611380679
  O        11.0514478921       17.0538441342       14.4955234625
  O        50.3208983571       20.8816030061        2.4120070664
  O        48.3468076543       20.5866197345        1.3322144422
  O        49.5437178330       18.2486077107        2.0733004191
  O        12.3590059245       18.6245862486        0.0048911724
  O        48.6931648575       14.1487407258       14.7461257428
  O         8.2098181203       14.2104951784        1.3276776984
  O        10.7353873042       14.5067553517        2.6695939320
  O        12.5719165320       14.5827382020        1.3336611063
  O        22.8463221188        2.0463159169       13.4810386258
  O        21.6068922403        3.5938005062       14.5835346717
  O        42.0581152563       34.1371952718       15.9735911218
  O        37.9819595099       33.1375251282       13.5675970091
  O        39.2188857870       31.5765455792       14.6620386616
  O        20.3084442272        1.0396153872       14.4968248399
  O        38.0251869338       33.1870862452        2.4197019437
  O        39.2185716554       31.5835509094        1.3320097088
  O        40.6522918653       33.7693650569        2.0653126624
  O        18.2556639601        1.3758814635        0.0019420032
  O        44.6222020453       35.1006378112       14.7535309794
  O        24.2053798550        0.0000580251        1.3259188125
  O        22.7532680126        2.0574048683        2.5886482728
  O        21.6249914077        3.5966607202        1.3481677743
  O        27.5050473147       18.7449516622       13.4883666568
  O        26.7717469655       16.9283811123       14.6514580335
  O        30.6490837347       19.3503450472        0.0661610111
  O        33.5388600888       16.3420035092       13.5858044496
  O        34.2688601785       18.1671180086       14.7366388083
  O        29.5841998207       17.0633499504       14.5698907858
  O        33.5406632532       16.3336016947        2.5021176497
  O        34.2659326632       18.1897774626        1.4134186571
  O        31.6478270016       18.3261924579        2.1718090541
  O        30.3328858982       15.1570753598        0.1456685650
  O        28.5567641174       21.0299648588       14.8944245481
  O        28.5123462311       20.9556993136        1.4155781759
  O        27.4568253856       18.6793787187        2.6624297062
  O        26.6950715185       16.9320629376        1.4176282637
  O        13.1496350111       18.6928751549        2.5925730747
  O        13.9196959157       16.9164331239        1.4097577077
  O        50.5959357096       19.3501184186        0.0255912216
  O        47.6822218673       16.3269830276        2.4226137924
  O        46.9513721139       18.1757390100        1.3299177903
  O        11.0696368544       17.0156511600        1.4947452597
  O        47.6738977527       16.3368223734       13.6463624791
  O        46.9260871355       18.2364551973       14.6580882065
  O        49.5684371689       18.3176131214       13.9770827225
  O        10.3186377281       15.1003122212        0.0018029184
  O        52.6707712660       21.0278301814        1.2469375486
  O        12.1468366817       20.8911192069       14.6681587943
  O        13.1090273296       18.6132848290       13.3202925213
  O        13.9570681070       16.9869165927       14.6606233835
  O        29.9882114366       14.4393641775        2.7383672234
  O        28.0882268417       14.6551101527        1.4974282358
  O        32.1447551076       16.8577486875        0.1538129812
  O        30.9490895326       20.9456810609        2.4224589920
  O        32.9177159381       20.6563480260        1.3307388876
  O        29.5683816348       17.0799088170        1.5849772758
  O        30.8724127978       20.9428952907       13.6570942528
  O        32.8771176892       20.5855826235       14.6640708038
  O        31.6833799597       18.2494284724       13.9939946628
  O        28.2907442583       18.6750904706        0.0818445540
  O        32.4909692410       14.2109975620        1.4158906605
  O        32.4046222994       14.2174677307       14.8223413525
  O        29.9085006086       14.5816435785       13.3275503340
  O        28.1261038105       14.5829543202       14.7364716965
  O        17.8894044219        1.9665718279        2.6678853946
  O        18.9563496579        3.5271167662        1.4130473260
  O        39.1687417751       34.1387735600        0.0022780634
  O        43.2803827439       33.0589432229        2.3366191842
  O        42.0346419056       31.5065123474        1.2465728912
  O        20.3177782049        1.0368308608        1.4851006460
  O        43.2758183836       33.1826595418       13.5696797819
  O        42.0050771167       31.5842402004       14.5777023825
  O        40.5791720329       33.7748366448       13.9307432550
  O        22.3673201289        1.3848078088        0.0027444479
  O        36.6727390186       35.0999220238        1.2383940921
  O        16.4454749301        0.0643097808       14.6630957767
  O        17.9368883903        2.0434190489       13.3209494245
  O        18.9195842954        3.5930404860       14.6605724066
  O        29.9000535293       18.9533814653       12.0063845314
  O        29.6951076697       18.9109739224        4.0811919439
  O        31.2030606028       16.2509424789       11.9840882768
  O        31.1910650857       16.4878588437        4.0839954099
  O        31.9919757899       16.7019883450        9.6676403816
  O        28.0056834994       17.3025048196        9.8994727848
  O        30.2546517615       15.8941703181        6.4354895052
  O        32.7511168622       16.5875403262        7.2442339481
  O        30.8941796625       19.3623803883        9.4786178703
  O        28.9244557067       18.3078807808        6.5781861732
  O        39.4564387618       35.2436667423       11.9968874891
  O        19.1412270383        0.0045517984        3.9956372219
  O        41.9697795944       35.1727171887       12.0822890819
  O        21.6913688578       -0.0693348146        3.9009637273
  O        51.3651716892       18.6142970195       12.0003821996
  O        10.7511611485       18.7471344601        3.9100070876
  O        50.0793682854       16.4127525737       12.0868002071
  O         9.5242348653       16.4832031317        3.9964246357
 Zr         9.2962491142       16.0531128103       14.1773243365
 Zr        49.8360918850       16.0069726086        1.7516264823
 Zr        22.0729297290        0.0294064452       14.1839216268
 Zr        42.4605575261       35.1524307354        1.8057991239
 Zr        29.6085479189       19.0970294288       14.2519731081
 Zr        29.5729889865       19.1826356566        1.8857111714
 Zr        11.0381202501       19.0520785504        1.8328880253
 Zr        11.0439942756       19.1548643261       14.2461615088
 Zr        31.3228596200       16.1088970434        1.9903779598
 Zr        31.4529018100       16.0526320640       14.4312169495
 Zr        18.6006859991       -0.0018581217        1.7684855140
 Zr        18.5058727706       -0.0085534113       14.2087111269
 Zr        12.3020562408       16.3239035856       15.9852652082
 Zr        48.6157346824       18.8328339209        0.0153064011
 Zr        20.3147132491        2.4727029574       15.9851590709
 Zr        40.6430308679       32.6860540350       15.9734067143
 Zr        28.3485571551       16.3538898239        0.1035749104
 Zr        32.6317073319       18.8721312465        0.0909998536
  H        32.7078075528       17.3854380891        6.6997755890
  O        29.5004071268       15.3838983997        8.9949643382
  H        29.7460993138       14.6557544758        9.5897671348
  H        28.9035883783       16.0354695445        9.5033584930
  O        33.8875385344       14.5721781822        5.9088072947
  H        34.2952168206       14.0490217328        6.6153739360
  H        33.4463095526       15.3319907581        6.3963144160
  O        27.5790036936       20.6802361721        7.2487159009
  H        27.9866208481       19.8133735901        7.0331347574
  H        27.8394873196       20.8326180593        8.1697724458
  O        30.5012492233       20.8859027426        6.1593637809
  H        30.3785187499       20.2811944454        5.3938393723
  H        29.5837854208       21.0959659347        6.4319108238
  H        30.4639770581       15.5821766905       12.0318750729
  H        28.5991100774       17.9111807038        9.3585070265
