     586
 i =      287, E =     -4847.8036584912
  C        11.8582117040       14.0537948610       13.7365189634
  C        12.4557693084       12.8904987088       13.0181768940
  C        11.7045387878       12.1727351867       12.0753431021
  C        12.2808680117       11.1104999679       11.3829292129
  C        13.6208482853       10.7393998461       11.6119105777
  C        14.3533246191       11.4416738723       12.5868263483
  C        13.7805529472       12.5067137057       13.2783600880
  C        14.2605559840        9.6488824499       10.8384872788
  C        14.2567084223        9.6572011828        9.4167785658
  C        13.7440530203       10.7595311096        8.6628034698
  C        49.1264723786       21.2333364638       13.8747276732
  C        48.5498605279       22.4011640612       13.1475587081
  C        49.2998420334       23.0683760649       12.1664296383
  C        48.7328454677       24.1073931382       11.4331751749
  C        47.4023347595       24.5091992737       11.6618614617
  C        46.6713785077       23.8601659950       12.6752822385
  C        47.2337789385       22.8152307499       13.4046089904
  C        46.7721674573       25.5868230697       10.8645520575
  C        46.7617850774       25.5574838084        9.4427315152
  C        47.2614687740       24.4423252725        8.6992487057
  C        14.8607575730        8.5708795194        8.7035685685
  C        14.8906943239        8.5965306472       11.5151259993
  C        49.1130945291       21.2034068736        2.1502643468
  C        48.5279612805       22.3647880224        2.8774105416
  C        49.2670713495       23.0253446071        3.8705407569
  C        48.6907913107       24.0598968656        4.6019841836
  C        47.3604867743       24.4570102021        4.3635167219
  C        46.6401434246       23.8121757565        3.3398848613
  C        47.2136150213       22.7761465837        2.6082299686
  C        46.7221537590       25.5319616864        5.1545495864
  C        46.7341925017       25.5284410002        6.5763032189
  C        47.2493112393       24.4291079108        7.3326534784
  C        40.6197798276       17.0862859800        7.3097700154
  C        40.6291809014       17.1252085571        4.4970380828
  C        11.8825759135       14.0866752762        2.2903179840
  C        12.4718806491       12.9103874930        2.9944649924
  C        11.7148396774       12.1782510077        3.9217230512
  C        12.2813048682       11.0957449631        4.5902421393
  C        13.6195892061       10.7208506772        4.3573435288
  C        14.3569165130       11.4351433282        3.3950958525
  C        13.7916062496       12.5164030119        2.7224147150
  C        14.2533247516        9.6242603299        5.1278745325
  C        14.2529002444        9.6447624996        6.5497243784
  C        13.7435114900       10.7539775869        7.2967536683
  C        22.5121141521        3.2435596347       13.7492867839
  C        23.2297573315        4.3496484997       13.0514212497
  C        24.2267026225        4.0692260481       12.1053995027
  C        24.8557113363        5.1084278108       11.4244904349
  C        24.5041330273        6.4505989227       11.6704094563
  C        23.5353927113        6.7226194954       12.6536121479
  C        22.9014947167        5.6849054640       13.3323497859
  C        25.1097768636        7.5566730960       10.8943041332
  C        25.0766786798        7.5507357020        9.4716573917
  C        24.3691666555        6.5544134980        8.7287472211
  C        38.2984564710       31.9245961574       13.8449594698
  C        37.5633632488       30.8344579791       13.1443705290
  C        36.6103359733       31.1339188637       12.1573959422
  C        35.9908481761       30.1115061818       11.4447433540
  C        36.3037201641       28.7593313537       11.6946483340
  C        37.2243180378       28.4689093892       12.7209127855
  C        37.8498020039       29.4900195945       13.4318896791
  C        35.7006995010       27.6690570410       10.8963819426
  C        35.7152376156       27.7007978001        9.4671130084
  C        36.4284359631       28.6936966283        8.7359356129
  C        25.6985052919        8.6200935909        8.7494349226
  C        25.7102289927        8.6309023510       11.5623168630
  C        38.3269390348       31.9609449470        2.1617201158
  C        37.6039609878       30.8926180127        2.9004919749
  C        36.6955047108       31.2031308273        3.9255936098
  C        36.0871233449       30.1869796149        4.6574895253
  C        36.3660890943       28.8303796058        4.3883319285
  C        37.2497704079       28.5318223504        3.3307566484
  C        37.8634268699       29.5442477420        2.6018497974
  C        35.7551991655       27.7351936464        5.1691172871
  C        35.7442121221       27.7333892684        6.5972319495
  C        36.4417023159       28.7109090468        7.3646579523
  C        46.1361850594       26.6210831614        7.2864529780
  C        46.0877595391       26.5800876546        4.4785493455
  C        22.4574874288        3.2549831207        2.2627706840
  C        23.1454269847        4.3662788502        2.9888599892
  C        24.1457895467        4.0841094297        3.9323530551
  C        24.7673722190        5.1167657466        4.6301985315
  C        24.4088949236        6.4611447143        4.4058716516
  C        23.4307582474        6.7366835671        3.4316396111
  C        22.8044268201        5.7039888823        2.7348965180
  C        25.0366537059        7.5612123369        5.1784243692
  C        25.0396421351        7.5524577692        6.6026965839
  C        24.3501081108        6.5561237989        7.3611582143
  C        26.6219781107       17.8584294933       13.7750448246
  C        25.3182860075       17.9100783212       13.0552561043
  C        25.0677778063       18.8959177209       12.0857071574
  C        23.8554964594       18.9178705131       11.4003137845
  C        22.8525355085       17.9596380807       11.6604207134
  C        23.0993623865       16.9999919292       12.6618135932
  C        24.3140301975       16.9703730861       13.3439582659
  C        21.5810481059       17.9448876978       10.8969666314
  C        21.5814363976       17.9252897259        9.4725909887
  C        22.7843181269       17.7944282315        8.7118482324
  C        34.4343768842       17.2220482513       13.8807476116
  C        35.7266977147       17.1593134826       13.1533967096
  C        35.9309162423       16.1959434419       12.1505002382
  C        37.1142761426       16.1799211421       11.4213361857
  C        38.1330016958       17.1223364022       11.6725896846
  C        37.9341888877       18.0586594937       12.7075384350
  C        36.7471311904       18.0827972790       13.4337703014
  C        39.3821269089       17.1318486228       10.8853066204
  C        39.3703569702       17.1208120019        9.4593000793
  C        38.1644185336       17.2347979513        8.7055448455
  C        20.3342989645       17.9429801759        8.7642044778
  C        20.3555460508       17.9418286777       11.5789737210
  C        34.4471693061       17.2357429890        2.1887495056
  C        35.7407131214       17.1270928421        2.8996122387
  C        35.9386666947       16.1614664800        3.9035670842
  C        37.1236931392       16.1366181669        4.6307524545
  C        38.1547134472       17.0669518719        4.3723594580
  C        37.9669727255       17.9927161770        3.3248164716
  C        36.7775958502       18.0311603361        2.6075376194
  C        39.3977547448       17.0917537666        5.1640413833
  C        39.3792618827       17.0991030596        6.5901352653
  C        38.1693420817       17.2223714309        7.3356668527
  C        35.0932537754       26.6612642521        7.2968215346
  C        35.1778430379       26.6599242369        4.4832552042
  C        26.5642090243       17.8215193932        2.3326036094
  C        25.2550366990       17.8719651624        3.0333315255
  C        24.9937106920       18.8707275279        3.9858557975
  C        23.7778341354       18.8948455273        4.6600633638
  C        22.7876609526       17.9226004917        4.4061736748
  C        23.0412530473       16.9535083049        3.4169958002
  C        24.2593628176       16.9244202286        2.7431221116
  C        21.5276631353       17.9019946009        5.1796437806
  C        21.5541386181       17.9017413518        6.6029417451
  C        22.7708905077       17.7827251311        7.3442092781
  C        14.0459015153       17.8283637146        2.2938512353
  C        15.3503438429       17.8842344227        3.0197445276
  C        15.6060029424       18.8840108944        3.9713401102
  C        16.8144374611       18.9030560981        4.6649369161
  C        17.8027327791       17.9256728937        4.4289487380
  C        17.5514402950       16.9501558453        3.4452322346
  C        16.3421348399       16.9261833080        2.7536784467
  C        19.0715815012       17.9078784079        5.1968762282
  C        19.0721652919       17.9133591777        6.6215073883
  C        17.8675277036       17.8153697403        7.3831141487
  C        46.8012712576       17.2153137223        2.1605946230
  C        45.5075772104       17.1451385363        2.8954469555
  C        45.3084729793       16.1795371602        3.8952229135
  C        44.1244812665       16.1582599355        4.6263375963
  C        43.1051393456       17.1002298085        4.3801622536
  C        43.3005175659       18.0411120007        3.3497058014
  C        44.4863049853       18.0681676765        2.6206317884
  C        41.8544675355       17.1115155265        5.1697291675
  C        41.8648593968       17.1095001708        6.5967732243
  C        43.0709538074       17.2215567747        7.3495733586
  C        20.3199543526       17.9297895224        7.3288802027
  C        20.2946008569       17.8815477820        4.5144462784
  C        46.7848470370       17.2322963916       13.8809997765
  C        45.4863721569       17.1298193155       13.1626929550
  C        45.2793434635       16.1534058689       12.1750839239
  C        44.0947846327       16.1338840745       11.4446174516
  C        43.0816587620       17.0844188829       11.6848601711
  C        43.2796502203       18.0278936235       12.7122087189
  C        44.4668422045       18.0566978503       13.4354598595
  C        41.8367089474       17.1093825754       10.8912092757
  C        41.8556117282       17.1079390961        9.4652892488
  C        43.0669693627       17.2176941593        8.7198302894
  C        46.1538380395       26.6374299814        8.7210086995
  C        46.1618583750       26.6557378887       11.5306669475
  C        14.0457734273       17.8324731086       13.7044892776
  C        15.3683258100       17.9090884196       13.0157918821
  C        15.6406285284       18.9229619293       12.0850342368
  C        16.8699319040       18.9614749623       11.4309354545
  C        17.8562003843       17.9859444078       11.6819452013
  C        17.5905882068       17.0014621724       12.6514410481
  C        16.3629524437       16.9621283390       13.3086612579
  C        19.1231899536       17.9617688004       10.9131752549
  C        19.0990184973       17.9399462907        9.4896569378
  C        17.8805886371       17.8275062758        8.7505272889
  C        28.7961477989       14.0817138239        2.3959408182
  C        28.1848983904       12.9162374002        3.0811601577
  C        28.9066185342       12.1654887312        4.0238204502
  C        28.3006620993       11.0974847053        4.6777458782
  C        26.9601931203       10.7478631304        4.4102950457
  C        26.2633581198       11.4732765559        3.4258374281
  C        26.8638421650       12.5461947294        2.7746658744
  C        26.2893317278        9.6729716715        5.1718725895
  C        26.2894277680        9.6962549545        6.5939828777
  C        26.7952858390       10.8082142561        7.3372682454
  C        32.1759382273       21.2447510195        2.1486350482
  C        32.7591768892       22.4156454192        2.8537434888
  C        32.0075838247       23.1013186310        3.8233922990
  C        32.5746883584       24.1398583837        4.5518546755
  C        33.9117242688       24.5325112267        4.3325459912
  C        34.6413275710       23.8722567823        3.3233450292
  C        34.0782595233       22.8243249950        2.5991703872
  C        34.5369454141       25.6023401809        5.1357738248
  C        34.5005993580       25.5807603668        6.5622198693
  C        33.9836071164       24.4719977602        7.2944430707
  C        25.6836079703        8.6177268393        7.3148209479
  C        25.6436284164        8.6262119089        4.5005263290
  C        32.0877517727       21.2084850677       13.8616450116
  C        32.6444144328       22.3500686876       13.1235852828
  C        31.9214031039       22.9975186077       12.0976798176
  C        32.5011511955       24.0244062275       11.3623358668
  C        33.8159474273       24.4728568049       11.6369321689
  C        34.5081800598       23.8554122453       12.7047998942
  C        33.9457383215       22.8085818025       13.4201578377
  C        34.4591156558       25.5456976088       10.8628460400
  C        34.4583952976       25.5560419711        9.4332472668
  C        33.9644500203       24.4620749394        8.6653676671
  C        40.6147269079       17.0917240117        8.7457284325
  C        40.6081163138       17.1474282158       11.5590420056
  C        28.7463031446       14.0682434959       13.8122756493
  C        28.1413572489       12.9242494015       13.0735957179
  C        28.8775021607       12.2313080375       12.0981724582
  C        28.2969323264       11.1758690531       11.3990377740
  C        26.9657613377       10.7824762396       11.6516267368
  C        26.2499052048       11.4617528368       12.6556817521
  C        26.8266377019       12.5197169835       13.3543989610
  C        26.3230372070        9.6919002116       10.8824573315
  C        26.3081056670        9.7059372476        9.4600004123
  C        26.8021006790       10.8137234351        8.7039255054
  C        18.1352834130        3.1801678382        2.3221363578
  C        17.4056020676        4.2777271380        3.0207518744
  C        16.3912983503        3.9992243741        3.9496751626
  C        15.7435244153        5.0391288233        4.6133419777
  C        16.0937896355        6.3829906238        4.3721989327
  C        17.0815916824        6.6525837759        3.4068377821
  C        17.7306879490        5.6152979676        2.7416710389
  C        15.4697789560        7.4908216225        5.1352805096
  C        15.4858319472        7.4906991668        6.5569947000
  C        16.1876409131        6.4972850954        7.3102195721
  C        42.9457740400       31.8592576947        2.0778054645
  C        43.6461009841       30.7718276995        2.8220163775
  C        44.5919527256       31.0931051740        3.8077943245
  C        45.1975902030       30.0875607726        4.5554611144
  C        44.8710300509       28.7344996665        4.3406948887
  C        43.9447289210       28.4202350170        3.3279082093
  C        43.3357793969       29.4253885544        2.5800088022
  C        45.4888189934       27.6553399647        5.1438232287
  C        45.4931372108       27.6810346293        6.5655622929
  C        44.8056682728       28.6888047244        7.3121286293
  C        14.8569522445        8.5632858253        7.2693226942
  C        14.8739638107        8.5623130303        4.4566915200
  C        42.9461420762       31.9610349282       13.8040480296
  C        43.6913101573       30.8850859236       13.0903627221
  C        44.6560328811       31.1909748056       12.1181700399
  C        45.2774398712       30.1714211349       11.4003608396
  C        44.9535441792       28.8210856371       11.6378335608
  C        44.0197332426       28.5234453288       12.6483093805
  C        43.3914297048       29.5401969995       13.3604557678
  C        45.5627580950       27.7238289902       10.8526193344
  C        45.5334630329       27.7173946949        9.4312603029
  C        44.8268243374       28.7073785074        8.6783584513
  C        35.0750895643       26.6469604354        8.7337647514
  C        35.1060299046       26.5867696275       11.5484184639
  C        18.1483221652        3.2462827936       13.7017144128
  C        17.4292746557        4.3434847363       12.9925964112
  C        16.4153351264        4.0520839395       12.0677685604
  C        15.7668899009        5.0826506108       11.3923166727
  C        16.1202022033        6.4280177087       11.6162326570
  C        17.1101687783        6.7114884226       12.5749196964
  C        17.7579539118        5.6826103221       13.2546682947
  C        15.4900427861        7.5238049207       10.8436498918
  C        15.4967906210        7.5076722375        9.4225004920
  C        16.1938434089        6.5061433213        8.6758234126
  H        10.6728682487       12.4680021551       11.8974378097
  H        11.6948917600       10.5530084377       10.6553769507
  H        15.3898034978       11.1657956691       12.7697307843
  H        14.3493503552       13.0690286820       14.0150031173
  H        13.3770703255       11.6316790844        9.1961004871
  H        50.3224659634       22.7481108627       11.9816614227
  H        49.3191338954       24.6224525647       10.6753177582
  H        45.6417712164       24.1607003207       12.8582146645
  H        46.6625242197       22.2896041825       14.1662664747
  H        47.6293841649       23.5756633142        9.2409052059
  H        14.8700222623        8.5872950459       12.6034109036
  H        50.2869523261       22.7021203612        4.0656519269
  H        49.2689371012       24.5750262547        5.3658825821
  H        45.6107140754       24.1093647979        3.1508650834
  H        46.6526008449       22.2537676098        1.8369394316
  H        47.6075017313       23.5517100003        6.8018177141
  H        40.6335540854       17.0946309339        3.4089985911
  H        48.6865055946       14.0952120358       15.7946281350
  H        10.6817898188       12.4683564847        4.0999714608
  H        11.6897840357       10.5262940828        5.3039203772
  H        15.3918266902       11.1560841032        3.2080606300
  H        14.3633027934       13.0849187677        1.9927107001
  H        13.3767386603       11.6225746155        6.7580504895
  H        47.9294223375       14.2214130517        1.7151674326
  H        47.7804136359       14.3771556470       14.4895425740
  H        49.0805260553       18.5510595497        2.8713958797
  H        10.4149063254       14.1345241970        0.0036906050
  H        24.4855258285        3.0302326704       11.9136150353
  H        25.6280706460        4.8901652713       10.6901250885
  H        23.2550519826        7.7556333718       12.8488521771
  H        22.1306550900        5.8850563388       14.0726081908
  H        23.8099020288        5.7977481360        9.2711902509
  H        36.3805687852       32.1765045701       11.9504429144
  H        35.2545124167       30.3507505798       10.6807191984
  H        37.4775917223       27.4302925176       12.9235629201
  H        38.5870114419       29.2688073183       14.2001485303
  H        37.0043028910       29.4344673394        9.2827555739
  H        25.7482684348        8.6131203370       12.6500648969
  H        36.4884180799       32.2480371999        4.1452201341
  H        35.3791210743       30.4354786813        5.4448565871
  H        37.4807861722       27.4907480687        3.1151803035
  H        38.5696744079       29.3152908035        1.8075057292
  H        37.0286318266       29.4635899906        6.8466637112
  H        46.1086937095       26.5872755973        3.3905006830
  H        44.6672652122       35.1155590410       15.8089198681
  H        24.4266677583        3.0467822760        4.1001300833
  H        25.5472393581        4.8910748235        5.3543709134
  H        23.1411018505        7.7698582010        3.2509509981
  H        22.0330753835        5.9126402281        1.9971374263
  H        23.7754080381        5.8013471836        6.8322104818
  H        44.9504067549       34.3876589125        1.6988083092
  H        44.8980613658       34.2051480948       14.4858968989
  H        40.6620537162       33.2058880214        2.8564568211
  H        23.1503519231        1.9563420244        0.0106844965
  H        25.8354165922       19.6410995746       11.8893126929
  H        23.6657953242       19.6888984166       10.6565928664
  H        22.3384650913       16.2516157803       12.8739034091
  H        24.5123578175       16.2127396253       14.0984591524
  H        23.7245917539       17.6659937233        9.2400783931
  H        35.1491403368       15.4668911906       11.9521208947
  H        37.2705678937       15.4258601497       10.6532222293
  H        38.7110012650       18.7934490146       12.9088360787
  H        36.5801314163       18.8241966733       14.2117561345
  H        37.2268100208       17.3685506953        9.2369277783
  H        20.3615230108       17.9798660086       12.6669694468
  H        35.1465979755       15.4416868194        4.0999845185
  H        37.2748338778       15.3858291678        5.4034054953
  H        38.7532074956       18.7147299176        3.1141690949
  H        36.6163716906       18.7718614000        1.8280571592
  H        37.2355642382       17.3476264050        6.7956689786
  H        35.1697387929       26.6809326228        3.3949924227
  H        28.4936323191       21.0754503856       15.9570697028
  H        25.7558913675       19.6227980996        4.1748048817
  H        23.5737536288       19.6730405077        5.3922606526
  H        22.2858595617       16.1974981377        3.2126769253
  H        24.4692219936       16.1610813052        1.9977584746
  H        23.7009742507       17.6453802214        6.8007707052
  H        29.0276693538       21.7133710769        1.7430225184
  H        29.1857273964       21.7201816942       14.6266994735
  H        32.1693773780       18.6051228655        2.9356759349
  H        27.3735194626       19.0199760291        0.0803050456
  H        14.8467919244       19.6417517068        4.1518912232
  H        17.0082573594       19.6846998855        5.3963500614
  H        18.3025843633       16.1863533709        3.2546024585
  H        16.1363417787       16.1593464111        2.0106269578
  H        16.9246280186       17.6966573706        6.8573386680
  H        46.0999252755       15.4604428657        4.0929832292
  H        43.9734510274       15.4034248188        5.3948430486
  H        42.5238237882       18.7775231943        3.1539981228
  H        44.6526672613       18.8120974762        1.8450005270
  H        44.0101722334       17.3455876240        6.8183978464
  H        20.2866870108       17.9050420936        3.4261262409
  H        46.0631021349       15.4241730769       11.9830488667
  H        43.9387591696       15.3760651072       10.6800357010
  H        42.5058064960       18.7680793905       12.9046912550
  H        44.6396294554       18.8070701810       14.2030374190
  H        44.0031344578       17.3378101873        9.2570590093
  H        46.1979744408       26.6818930709       12.6181468438
  H        52.7403889033       21.0620606333        0.1995278925
  H        14.8782953216       19.6742147293       11.8906371728
  H        17.0789377104       19.7504534262       10.7116770752
  H        18.3420538348       16.2407160173       12.8526083435
  H        16.1426558025       16.1885143848       14.0402702055
  H        16.9475133985       17.7178866332        9.2948617143
  H        52.3189026568       21.6721275918       14.2904377788
  H        52.0103046720       21.6997951098        1.5001930791
  H        49.0649407645       18.6074974979       13.2001045002
  H        13.2470181098       19.0166277786       15.9723858244
  H        29.9440220151       12.4248826744        4.2232441313
  H        28.8607248567       10.5148844750        5.4059960893
  H        25.2293218867       11.2122230279        3.2101003053
  H        26.3199747795       13.1287516648        2.0352057467
  H        27.1488745362       11.6803944789        6.7957018655
  H        30.9779897276       22.7967730646        3.9926219249
  H        31.9876433726       24.6701346256        5.2984535295
  H        35.6737459412       24.1655188447        3.1442593389
  H        34.6531905149       22.2905852131        1.8458590827
  H        33.6343016281       23.6021286510        6.7458998858
  H        25.6651035604        8.6085394791        3.4122663503
  H        30.8954725089       22.6909035143       11.9034712043
  H        31.9304224138       24.5226411058       10.5815240804
  H        35.5202382205       24.1840260594       12.9322096278
  H        34.5004462446       22.3125006135       14.2128870740
  H        33.6030528199       23.5825990531        9.1899405635
  H        40.6061183951       17.1233282733       12.6472344975
  H        32.5193500257       14.1446828065        0.2569994682
  H        29.9098482966       12.5252179080       11.9173547036
  H        28.8749254013       10.6317607442       10.6549874176
  H        25.2211130081       11.1708750776       12.8579989222
  H        26.2679796378       13.0592597557       14.1154701375
  H        27.1595666964       11.6901453254        9.2361666366
  H        33.3014520986       14.1853624704       14.4360554422
  H        33.4082178167       14.3851064680        1.6171530605
  H        32.1569339676       18.5361443914       13.1993246722
  H        30.2308503391       14.1911756317        0.0846800427
  H        16.1206096148        2.9625485249        4.1372086656
  H        14.9551439513        4.8194902016        5.3301036554
  H        17.3623661169        7.6856276796        3.2122442500
  H        18.5112750976        5.8177681122        2.0122187569
  H        16.7541262636        5.7398653132        6.7767604859
  H        44.8281174250       32.1402158259        3.9819009067
  H        45.9373283800       30.3411949849        5.3115576386
  H        43.6813989884       27.3782440434        3.1583138904
  H        42.5982437587       29.1901285045        1.8161931645
  H        44.2295436351       29.4359980113        6.7738388218
  H        14.8492219976        8.5449255694        3.3685004628
  H        44.8994629570       32.2336876082       11.9268047426
  H        46.0241683876       30.4125427507       10.6469286771
  H        43.7621946646       27.4837711818       12.8393939866
  H        42.6442524904       29.3174067095       14.1182525964
  H        44.2674569399       29.4696431929        9.2129379018
  H        35.0782188944       26.5882413952       12.6366416926
  H        36.6047297929       35.1331525916        0.1863824920
  H        16.1453634068        3.0123436274       11.8971692828
  H        14.9755248266        4.8555624809       10.6812365941
  H        17.3922636784        7.7471213022       12.7530682250
  H        18.5395352538        5.8928734589       13.9808762397
  H        16.7650928973        5.7558261998        9.2143524479
  H        36.2807813507       34.4788958975       14.2694147704
  H        36.3850856760       34.2072771482        1.5056462885
  H        40.5758290776       33.1987671630       13.1501991787
  H        17.4708286033        1.9454571979       15.9686789557
  H        28.7484092311       18.9013892413        4.3062413903
  H        30.3367785565       19.8529189944       11.9318364135
  H        32.3871857369       16.1806413447       11.8042208097
  H        30.8597865738       15.2374346156        4.1969905707
  H        28.0960143998       17.4148260280        6.7169119837
  H        29.8014088720       14.8784235103        6.6207013100
  H        31.5346444176       20.5447743420        9.0594529304
  H        32.9168006712       17.8559251501        9.2489688175
  H        28.8251798778       17.6700186582       10.2441148393
  H        18.8540451097        0.8694859222        4.3399412803
  H        40.5275564208       35.2295986770       11.9476714550
  H        42.3193609213       34.4142489015       11.5888953161
  H        22.0879654633        0.6927741740        4.3551924432
  H        11.5976335836       18.7118601625        4.3862746507
  H        52.2649481202       18.4299529740       11.6735004096
  H        49.2538285481       16.4805844494       11.5819120259
  H        10.1507517013       15.7984647252        4.2973124428
  H        50.8493978569       17.6920974776       11.9496610686
  H        10.0455621764       17.3946137173        4.0570599173
  H        20.2142591864        0.0017128233        4.0473257327
  H        39.1831498087       36.1246097053       11.6822025190
 Ni        31.0332599895       17.8630867634       10.8280923511
 Ni        31.2817093289       16.3526908452        8.0783144324
 Ni        29.7985593659       19.0682540976        7.4948061991
 Ni        29.9728362533       17.1631287401        5.2495996298
  O        10.6497634645       14.3650463449       13.4805249535
  O        12.6131506897       14.6574451617       14.5787444624
  O        49.1480721257       16.8460702260       15.9847766447
  O        50.3502363530       20.9360937793       13.6431044629
  O        48.3485655073       20.5935130748       14.6609622301
  O        11.0510298179       17.0541798004       14.4953922628
  O        50.3212330740       20.8817308916        2.4118272296
  O        48.3467600319       20.5869204047        1.3321624251
  O        49.5434532778       18.2485568602        2.0733870928
  O        12.3588143066       18.6245060182        0.0048477627
  O        48.6928621121       14.1485603987       14.7460179842
  O         8.2096304073       14.2103601768        1.3277911229
  O        10.7353543268       14.5066658735        2.6695299840
  O        12.5718439511       14.5827623987        1.3335388538
  O        22.8449902643        2.0434294062       13.4817942581
  O        21.6055587995        3.5926443875       14.5844819953
  O        42.0572333879       34.1363057527       15.9737782677
  O        37.9814469865       33.1350503838       13.5671910028
  O        39.2182104252       31.5754783763       14.6612928974
  O        20.3079063764        1.0386242305       14.4964656483
  O        38.0254450008       33.1876179925        2.4193991110
  O        39.2193426077       31.5841628209        1.3310889233
  O        40.6522552052       33.7688549632        2.0653313201
  O        18.2561327658        1.3751961910        0.0017358092
  O        44.6223290123       35.1003207526       14.7535153169
  O        24.2053079377       -0.0000134570        1.3260368200
  O        22.7530127011        2.0584302515        2.5892189740
  O        21.6237458955        3.5958133247        1.3463904765
  O        27.5063326184       18.7463225421       13.4873672289
  O        26.7669509904       16.9312810269       14.6475797966
  O        30.6370639117       19.3485405486        0.0664005545
  O        33.5482610432       16.3378290552       13.5834923554
  O        34.2749157750       18.1664313734       14.7296264225
  O        29.5779352528       17.0541429957       14.5610823186
  O        33.5491210582       16.3416758995        2.4238501296
  O        34.2955838743       18.2407211923        1.4095253729
  O        31.6487787259       18.3095892896        2.1726453975
  O        30.3263349390       15.1581357353        0.0901674777
  O        28.5533063970       21.0282981429       14.8946093022
  O        28.5131515630       20.9544766564        1.4179937684
  O        27.4604995875       18.6748240742        2.6667404620
  O        26.6945462654       16.9269345716        1.4198108872
  O        13.1490242973       18.6930119843        2.5927262206
  O        13.9194357989       16.9159990879        1.4099445643
  O        50.5954334540       19.3500932530        0.0255316396
  O        47.6832659917       16.3268919345        2.4221546074
  O        46.9514374256       18.1756781530        1.3297338517
  O        11.0694390141       17.0155665585        1.4950206103
  O        47.6768071530       16.3354217181       13.6478108591
  O        46.9276884259       18.2355682260       14.6597355242
  O        49.5682359369       18.3177840991       13.9770971062
  O        10.3183563561       15.1004214662        0.0021290900
  O        52.6706681240       21.0280430337        1.2469280289
  O        12.1467963797       20.8913213831       14.6680705051
  O        13.1086087027       18.6136978723       13.3203437002
  O        13.9577185352       16.9870603875       14.6603061132
  O        29.9888133884       14.4380196735        2.7318600197
  O        28.0886293465       14.6530558618        1.4986331319
  O        32.1379204246       16.8510342888        0.0777366057
  O        30.9594062369       20.9414468897        2.4181137229
  O        32.9398129501       20.5997960716        1.3436087634
  O        29.5715514095       17.0713807428        1.5864549901
  O        30.8437835563       20.8791780501       13.6475450351
  O        32.8656263125       20.5816344433       14.6639189119
  O        31.6796720173       18.2476927962       13.9940051301
  O        28.2632799844       18.6308309162        0.0811944700
  O        32.4918928887       14.2115732868        1.3326558916
  O        32.4082469533       14.2181115793       14.8181489480
  O        29.9192218257       14.4453820225       13.4815771544
  O        28.0410017959       14.5888638724       14.7480754304
  O        17.8890208138        1.9664616561        2.6680817554
  O        18.9560925918        3.5270599533        1.4130892939
  O        39.1686392622       34.1385453247        0.0021481383
  O        43.2803550878       33.0589669696        2.3367434533
  O        42.0349070166       31.5063551573        1.2465648782
  O        20.3172771837        1.0359888083        1.4858910939
  O        43.2761884818       33.1823031320       13.5698010803
  O        42.0053248120       31.5838849220       14.5779672802
  O        40.5787904017       33.7742539154       13.9303213902
  O        22.3667397166        1.3840097316        0.0030161243
  O        36.6724596324       35.0994997141        1.2386857836
  O        16.4450793688        0.0634905802       14.6628167157
  O        17.9362808136        2.0432702317       13.3211688317
  O        18.9189635073        3.5930648972       14.6607999561
  O        29.9125082188       18.9733637682       11.9884651435
  O        29.7022163897       18.9124283520        4.0721653108
  O        31.4268252786       16.1974675628       11.9909413068
  O        31.2979551425       16.1158514128        4.1621307995
  O        32.3236393389       17.1562248395        9.5642886934
  O        28.4666116750       17.6574800446        9.3252127309
  O        29.7741103628       15.8259762336        6.8320933150
  O        31.2539259920       17.9503015944        6.7485505625
  O        30.7942879152       19.9349983641        9.2377508081
  O        28.5112658723       18.1643757695        6.2519843626
  O        39.4566739658       35.2438331089       11.9968232680
  O        19.1414914458        0.0046511254        3.9959395201
  O        41.9699830989       35.1727283233       12.0821680797
  O        21.6916636559       -0.0693717500        3.9008385128
  O        51.3649934974       18.6141712143       12.0004392814
  O        10.7512268126       18.7472677756        3.9099816192
  O        50.0798488366       16.4128847495       12.0863110864
  O         9.5243794654       16.4830824911        3.9964682447
 Zr         9.2938390954       16.0532615135       14.1770259983
 Zr        49.8340478064       16.0072923423        1.7517615224
 Zr        22.0715295536        0.0266725373       14.1849426492
 Zr        42.4591549650       35.1505025466        1.8050161655
 Zr        29.5887290945       19.0770298515       14.2731662180
 Zr        29.5745305688       19.1730519978        1.8569379288
 Zr        11.0361317372       19.0519449539        1.8322761134
 Zr        11.0418563633       19.1547651748       14.2466336570
 Zr        31.3676394569       16.1044119625        1.8613005050
 Zr        31.3889135115       16.0021512936       14.2565038294
 Zr        18.5994195849       -0.0054328376        1.7692872907
 Zr        18.5050207319       -0.0120193067       14.2080923479
 Zr        12.2995723535       16.3240385538       15.9848562903
 Zr        48.6127013642       18.8323104377        0.0152319331
 Zr        20.3129830527        2.4691849904       15.9853273415
 Zr        40.6392789228       32.6826373178       15.9734047586
 Zr        28.3373828595       16.3312097233        0.0856416609
 Zr        32.6361878535       18.8415212330        0.0479343572
  H        32.0554370941       18.4218459448        6.4658213314
  O        30.9211750740       14.8771582035        9.6540222600
  H        31.0387742839       15.2590029823       10.5831018017
  H        30.1241616435       14.3238781150        9.6824203592
  O        32.5305736968       15.3169702374        6.5809363951
  H        33.4959609298       15.4133390228        6.6239281033
  H        32.2508626305       15.6731005334        5.6881967342
  O        28.0061010656       20.0765519172        8.1647173500
  H        27.5450409504       19.8537626946        7.3278860535
  H        27.7341418660       19.3401677609        8.7601571742
  O        30.2941018505       20.5049941850        6.0695538043
  H        30.1274826283       19.9797098019        5.1888448642
  H        29.7489001701       21.3068340300        6.0133344426
  H        28.7144655945       16.7874668828        8.9510963045
  H        30.1188775387       20.4733066398        9.6935119952
