     586
 i =       84, E =     -4847.7236744796
  C        11.8583376474       14.0527029211       13.7375540657
  C        12.4564786225       12.8911057917       13.0176009804
  C        11.7043460072       12.1714759117       12.0768095133
  C        12.2807780266       11.1094804473       11.3841628228
  C        13.6213260504       10.7396007362       11.6119171245
  C        14.3545596524       11.4431812217       12.5853340327
  C        13.7816216628       12.5079268644       13.2771428747
  C        14.2611045510        9.6490430997       10.8385640254
  C        14.2562524992        9.6569060270        9.4168668332
  C        13.7431975976       10.7590439754        8.6629060311
  C        49.1267617427       21.2327457615       13.8741442122
  C        48.5502891836       22.4012810195       13.1478731772
  C        49.3000090198       23.0683976693       12.1665032342
  C        48.7331782931       24.1076283129       11.4333660530
  C        47.4025858154       24.5091488320       11.6618930406
  C        46.6716046198       23.8602130439       12.6753444339
  C        47.2340960450       22.8152188687       13.4045390725
  C        46.7725747476       25.5869829724       10.8646231904
  C        46.7610952089       25.5570659264        9.4428799832
  C        47.2615365289       24.4422565806        8.6993238686
  C        14.8604174406        8.5707210514        8.7035666888
  C        14.8916495995        8.5968913691       11.5151154034
  C        49.1129395892       21.2033061671        2.1507094615
  C        48.5281720007       22.3654840579        2.8769828820
  C        49.2670709104       23.0253238247        3.8707284264
  C        48.6907522197       24.0600945256        4.6018764107
  C        47.3603731601       24.4569844678        4.3636472507
  C        46.6399985822       23.8119371009        3.3401863634
  C        47.2133262060       22.7757491970        2.6086287258
  C        46.7216035188       25.5316805612        5.1547770802
  C        46.7340510003       25.5284033686        6.5764670785
  C        47.2488880541       24.4288693482        7.3327823132
  C        40.6185228933       17.1449682074        7.3176456718
  C        40.6226939752       17.1439681749        4.5065113644
  C        11.8815722675       14.0851148977        2.2888984522
  C        12.4730157590       12.9123081529        2.9963857695
  C        11.7145044860       12.1771783531        3.9201750465
  C        12.2813299498       11.0953163232        4.5893822045
  C        13.6200529692       10.7212929386        4.3575001488
  C        14.3580753153       11.4370219726        3.3968643033
  C        13.7923560206       12.5175450279        2.7234015437
  C        14.2537683708        9.6246085108        5.1279209753
  C        14.2527110069        9.6447188598        6.5497622196
  C        13.7425131670       10.7535050276        7.2968567678
  C        22.5122592008        3.2435158554       13.7483958382
  C        23.2292679177        4.3471796505       13.0492391166
  C        24.2258128391        4.0646341137       12.1033499912
  C        24.8554382141        5.1022080993       11.4209590274
  C        24.5029671994        6.4444603068       11.6642118874
  C        23.5352861563        6.7191465173       12.6476270563
  C        22.9012572153        5.6830084864       13.3281233949
  C        25.1098462384        7.5495770484       10.8881724175
  C        25.0795926729        7.5430459342        9.4668306699
  C        24.3771261934        6.5438123445        8.7209304578
  C        38.3061251411       31.9276599730       13.8394986013
  C        37.5739402464       30.8365225723       13.1338370336
  C        36.6228528624       31.1372468213       12.1467667683
  C        36.0088417285       30.1145311636       11.4285095144
  C        36.3360167282       28.7658369850       11.6712780919
  C        37.2633557955       28.4731886306       12.6890884329
  C        37.8818877683       29.4944072272       13.4056266380
  C        35.7363989704       27.6720699190       10.8736544975
  C        35.7721694131       27.6832703837        9.4522308012
  C        36.4763711475       28.6861712399        8.7139610507
  C        25.7029991036        8.6125926712        8.7467896185
  C        25.7091707239        8.6231782499       11.5585643804
  C        38.3418131739       31.9619112500        2.1744126360
  C        37.5980828682       30.8856603812        2.8910670634
  C        36.6840838155       31.1904386868        3.9114363462
  C        36.0725281991       30.1687626924        4.6356076528
  C        36.3776568047       28.8168171721        4.3796436689
  C        37.2811753616       28.5225076940        3.3400912118
  C        37.8950672507       29.5404956966        2.6171587088
  C        35.7744839738       27.7138510267        5.1629193941
  C        35.7898609722       27.7067239369        6.5849907887
  C        36.4839304295       28.6980464067        7.3473542152
  C        46.1351927998       26.6204955688        7.2867095898
  C        46.0881213693       26.5802647208        4.4786263211
  C        22.4607213279        3.2551453768        2.2622489403
  C        23.1542680309        4.3637430977        2.9852228189
  C        24.1571853237        4.0768603166        3.9248618065
  C        24.7859633377        5.1062069592        4.6210440280
  C        24.4297886100        6.4518325012        4.4013015997
  C        23.4503373911        6.7326309013        3.4299351421
  C        22.8173493549        5.7031788296        2.7343204956
  C        25.0622467260        7.5490091924        5.1748876573
  C        25.0554724029        7.5425635914        6.5976887824
  C        24.3640081747        6.5442956008        7.3543111706
  C        26.6315789061       17.8456706961       13.7640279039
  C        25.3131853021       17.9142982407       13.0598802271
  C        25.0576311827       18.8999559805       12.0933241067
  C        23.8441052590       18.9231840203       11.4080557343
  C        22.8542965674       17.9497281773       11.6542999458
  C        23.1085686894       16.9789186326       12.6415095783
  C        24.3246473066       16.9523586443       13.3230349995
  C        21.5786212809       17.9377321682       10.8940431171
  C        21.5792913798       17.9096459440        9.4716039724
  C        22.7842751997       17.7873518890        8.7097267153
  C        34.4236388355       17.2337620658       13.8758483972
  C        35.7215453220       17.1760459143       13.1424529841
  C        35.9215245714       16.2162997258       12.1379045005
  C        37.1101461086       16.1993933056       11.4140610536
  C        38.1215572867       17.1459342548       11.6696536969
  C        37.9211792752       18.0869978870       12.6972448971
  C        36.7309892659       18.1097532897       13.4203789313
  C        39.3763704077       17.1565285861       10.8851305308
  C        39.3695744887       17.1758612697        9.4638398431
  C        38.1605593917       17.3062778548        8.7102101368
  C        20.3328828014       17.9296568469        8.7627573899
  C        20.3532568686       17.9379858772       11.5752078012
  C        34.4395870042       17.2337393650        2.1891129612
  C        35.7310815345       17.1566201058        2.9313725891
  C        35.9404136422       16.1757414802        3.9133499846
  C        37.1292953910       16.1594631343        4.6404271931
  C        38.1410681827       17.1088900771        4.3922096777
  C        37.9385561194       18.0555326563        3.3713086808
  C        36.7494220452       18.0808785593        2.6493959012
  C        39.3942817438       17.1340918036        5.1786663120
  C        39.3786445532       17.1620440153        6.5992942244
  C        38.1647392350       17.2997604424        7.3439114530
  C        35.1616634166       26.6264006908        7.2890987806
  C        35.1798079379       26.6445379182        4.4811883759
  C        26.5662938548       17.8256888135        2.3283567292
  C        25.2588361385       17.8651576452        3.0448444774
  C        24.9876825597       18.8823223276        3.9730985123
  C        23.7730598150       18.9043768373        4.6520331589
  C        22.7916020318       17.9226597529        4.4088555120
  C        23.0516396402       16.9382711484        3.4380603687
  C        24.2680165404       16.9136159012        2.7590498972
  C        21.5279889753       17.9022928508        5.1808839536
  C        21.5523826138       17.8938298033        6.6021069718
  C        22.7713469635       17.7769394993        7.3433951339
  C        14.0465172135       17.8283626949        2.2940049560
  C        15.3505546854       17.8844562228        3.0205664322
  C        15.6069850124       18.8866134505        3.9693295156
  C        16.8158621384       18.9060096218        4.6624850047
  C        17.8029128019       17.9274338969        4.4281043200
  C        17.5508712804       16.9499087202        3.4470590082
  C        16.3415955797       16.9253624303        2.7553188785
  C        19.0720342451       17.9089719118        5.1968575400
  C        19.0717771535       17.9075354066        6.6193748791
  C        17.8652332067       17.8039238878        7.3807965964
  C        46.8026336098       17.2212586252        2.1657594872
  C        45.5069441624       17.1592299379        2.9044094358
  C        45.2966099218       16.1857759716        3.8934838540
  C        44.1101942532       16.1690544861        4.6228084281
  C        43.1040423141       17.1274857477        4.3905787623
  C        43.3145191724       18.0834342262        3.3782454247
  C        44.5014594461       18.1048921688        2.6491612379
  C        41.8500628899       17.1426449177        5.1804639773
  C        41.8618931512       17.1510598864        6.6029578949
  C        43.0733249153       17.2505341995        7.3573423111
  C        20.3184088381       17.9157772741        7.3280282036
  C        20.2960863762       17.8928757896        4.5144749244
  C        46.7847061036       17.2318381276       13.8826209658
  C        45.4836681243       17.1315789888       13.1614271919
  C        45.2646216075       16.1392154884       12.1937442016
  C        44.0781513924       16.1193017899       11.4640843323
  C        43.0789499022       17.0867004009       11.6873921102
  C        43.2878653933       18.0476420721       12.6944046486
  C        44.4753828339       18.0742156558       13.4185824223
  C        41.8313898864       17.1139312107       10.8919752374
  C        41.8534144179       17.1380496799        9.4708056363
  C        43.0695734475       17.2391966972        8.7243113575
  C        46.1538607820       26.6374439527        8.7212334851
  C        46.1622470769       26.6558808303       11.5307649390
  C        14.0459310200       17.8316107107       13.7032387526
  C        15.3678349764       17.9058583298       13.0133159388
  C        15.6410036129       18.9203450749       12.0835961991
  C        16.8700366049       18.9572023601       11.4285685435
  C        17.8538887981       17.9792324764       11.6780353546
  C        17.5875395898       16.9940617830       12.6462489907
  C        16.3604879531       16.9563103977       13.3046359414
  C        19.1208866752       17.9551890980       10.9083501517
  C        19.0974958127       17.9251951125        9.4870412256
  C        17.8776180704       17.8151173018        8.7467184051
  C        28.8000911452       14.0891182847        2.3957457100
  C        28.1909112617       12.9186665731        3.0874098448
  C        28.9216469832       12.1661553403        4.0194620269
  C        28.3220019705       11.0926355728        4.6728303645
  C        26.9819131821       10.7411469587        4.4133502865
  C        26.2773407866       11.4710471364        3.4392647768
  C        26.8715913413       12.5467388848        2.7848947292
  C        26.3123919924        9.6605161943        5.1727247124
  C        26.3042122336        9.6865872899        6.5934955792
  C        26.8120951841       10.7980854900        7.3380313035
  C        32.1809607573       21.2321508409        2.1536801622
  C        32.7736758970       22.3939111131        2.8770177511
  C        32.0345799823       23.0562874840        3.8685329689
  C        32.6062404518       24.1005416727        4.5881546994
  C        33.9340439476       24.4991261237        4.3420668211
  C        34.6561812023       23.8525403016        3.3213278386
  C        34.0867182410       22.8039486989        2.6025284943
  C        34.5700933695       25.5711809388        5.1407241901
  C        34.5702706422       25.5416721350        6.5625319785
  C        34.0672537509       24.4245063550        7.3017598617
  C        25.6961337727        8.6079012190        7.3123159723
  C        25.6740850388        8.6123336488        4.4974390615
  C        32.1046749359       21.2245332730       13.8710090231
  C        32.6986476501       22.3671753531       13.1181639388
  C        31.9693223041       23.0238134276       12.1148931579
  C        32.5575001936       24.0524289307       11.3826059331
  C        33.8840839572       24.4557891865       11.6337601736
  C        34.5949416920       23.8045662864       12.6600653844
  C        34.0148170185       22.7704384524       13.3900621629
  C        34.5289173795       25.5347896793       10.8497899265
  C        34.5471259877       25.5229112977        9.4279919953
  C        34.0532010003       24.4162414243        8.6681976201
  C        40.6133711919       17.1392570796        8.7518989128
  C        40.6020138700       17.1394361637       11.5607125857
  C        28.7303115894       14.0673971946       13.8203124298
  C        28.1258453232       12.9198880420       13.0804753163
  C        28.8659724660       12.2288657046       12.1079668697
  C        28.2881907722       11.1715694974       11.4082144600
  C        26.9559655869       10.7803427908       11.6515712437
  C        26.2340799133       11.4626611849       12.6485514821
  C        26.8087198664       12.5197714504       13.3513786809
  C        26.3166239171        9.6875869604       10.8802153142
  C        26.3092609011        9.6994210250        9.4585574014
  C        26.8104689624       10.8060057647        8.7036558661
  C        18.1370706936        3.1812005010        2.3236138861
  C        17.4047343859        4.2781938129        3.0194330424
  C        16.3908590523        3.9998990461        3.9489763546
  C        15.7425658281        5.0399586994        4.6118051032
  C        16.0946776017        6.3836482174        4.3722481362
  C        17.0838307365        6.6530536110        3.4082195731
  C        17.7335247905        5.6156492334        2.7438755288
  C        15.4703345497        7.4913554377        5.1352618265
  C        15.4856658090        7.4907546913        6.5569667181
  C        16.1871969709        6.4971052359        7.3101140763
  C        42.9448229833       31.8597524397        2.0790212746
  C        43.6466672565       30.7720015819        2.8213456329
  C        44.5916776476       31.0932022578        3.8078983953
  C        45.1976103699       30.0876180646        4.5552933986
  C        44.8711707713       28.7345160043        4.3408937480
  C        43.9452995345       28.4204243697        3.3276808604
  C        43.3362038262       29.4255250319        2.5798169860
  C        45.4886500086       27.6551422113        5.1440659203
  C        45.4933090928       27.6810951914        6.5657562031
  C        44.8058043263       28.6889549594        7.3122538665
  C        14.8565444947        8.5631402035        7.2693474737
  C        14.8750517504        8.5631077808        4.4566426687
  C        42.9454554381       31.9618442436       13.8025679216
  C        43.6923252436       30.8854615146       13.0912887765
  C        44.6560316472       31.1912112277       12.1180907246
  C        45.2780117551       30.1716888312       11.4006919924
  C        44.9539001078       28.8213903730       11.6378893614
  C        44.0204515091       28.5236878458       12.6486676255
  C        43.3918372485       29.5405229119       13.3604367763
  C        45.5632935315       27.7241025243       10.8527589727
  C        45.5331582290       27.7172050320        9.4314738926
  C        44.8273281356       28.7077164658        8.6784316111
  C        35.1498587127       26.6172160269        8.7238881793
  C        35.1322936395       26.5964495785       11.5351801368
  C        18.1513465385        3.2471666700       13.6994000313
  C        17.4276205930        4.3436205898       12.9947378181
  C        16.4155148557        4.0525857028       12.0677131053
  C        15.7661675183        5.0832529451       11.3933759316
  C        16.1211529571        6.4284059329       11.6160113401
  C        17.1122896248        6.7117048039       12.5735293207
  C        17.7608755821        5.6825880499       13.2520979417
  C        15.4907390895        7.5241064156       10.8435163628
  C        15.4965847020        7.5075565992        9.4223943529
  C        16.1933562645        6.5058520093        8.6757176308
  H        10.6722877725       12.4657159388       11.8995171683
  H        11.6945033237       10.5508977772       10.6576848552
  H        15.3915740676       11.1685899066       12.7671667533
  H        14.3511081669       13.0714228163       14.0123437195
  H        13.3759091007       11.6310566466        9.1962088968
  H        50.3228058055       22.7485828497       11.9819179809
  H        49.3196873961       24.6229576059       10.6758528935
  H        45.6420714649       24.1608999521       12.8584095868
  H        46.6630358379       22.2900414282       14.1666343257
  H        47.6298094362       23.5758214535        9.2410825966
  H        14.8719498743        8.5882230355       12.6034209633
  H        50.2872729780       22.7027579785        4.0652758269
  H        49.2691785096       24.5755502474        5.3653419662
  H        45.6105797741       24.1091578164        3.1511871927
  H        46.6525985108       22.2538948676        1.8367874151
  H        47.6078282489       23.5517837339        6.8019462108
  H        40.6247760183       17.1010671465        3.4189577940
  H        48.6868817233       14.0949789647       15.7948384697
  H        10.6812738020       12.4665815254        4.0984720513
  H        11.6895970881       10.5246624399        5.3019299428
  H        15.3934439755       11.1590901404        3.2107018093
  H        14.3648952819       13.0875882596        1.9955812422
  H        13.3756162981       11.6220879039        6.7582157012
  H        47.9299034096       14.2176484832        1.7165253707
  H        47.7797654935       14.3726766185       14.4895067954
  H        49.0831141887       18.5522633878        2.8722413727
  H        10.4157049810       14.1345465431        0.0042391058
  H        24.4842144949        3.0252045044       11.9138480473
  H        25.6282759935        4.8824305640       10.6875650998
  H        23.2567725224        7.7529663941       12.8411927150
  H        22.1314188068        5.8854199568       14.0687331781
  H        23.8164780063        5.7872807210        9.2622789206
  H        36.3834434539       32.1799526776       11.9512151053
  H        35.2671566767       30.3525977394       10.6692238589
  H        37.5240428542       27.4347214508       12.8825450637
  H        38.6210371212       29.2750838719       14.1724117614
  H        37.0414426131       29.4368123895        9.2587738511
  H        25.7436176102        8.6073383514       12.6463877037
  H        36.4567920172       32.2336269082        4.1195821626
  H        35.3488099319       30.4103357274        5.4109497019
  H        37.5293357200       27.4833786142        3.1340332695
  H        38.6121840195       29.3182351430        1.8306480553
  H        37.0587316294       29.4542970623        6.8204755322
  H        46.1093577501       26.5875420749        3.3905817712
  H        44.6684803532       35.1160610010       15.8088156561
  H        24.4359840174        3.0386387113        4.0902965082
  H        25.5675605161        4.8774500943        5.3424178359
  H        23.1639643471        7.7670171291        3.2509606891
  H        22.0448940189        5.9155641612        1.9987836106
  H        23.7917432276        5.7889007083        6.8236363050
  H        44.9540772721       34.3907997309        1.7003277025
  H        44.9022900280       34.2070163666       14.4854666868
  H        40.6655960550       33.2089868826        2.8573879728
  H        23.1505327925        1.9574662796        0.0103773485
  H        25.8191101799       19.6544813710       11.9083333111
  H        23.6484370326       19.7007317714       10.6727537208
  H        22.3556514188       16.2187581291       12.8412552851
  H        24.5302378369       16.1889401549       14.0695362377
  H        23.7244719574       17.6660937364        9.2397612697
  H        35.1350135445       15.4918983410       11.9388457487
  H        37.2675241800       15.4459408513       10.6453345103
  H        38.6953273569       18.8253894335       12.8962822110
  H        36.5584609405       18.8488748145       14.1990585853
  H        37.2259825310       17.4458555254        9.2461086105
  H        20.3619249015       17.9816665169       12.6627726652
  H        35.1545440087       15.4491188348        4.1138936449
  H        37.2913712301       15.4009058422        5.4034951733
  H        38.7114018401       18.7953705800        3.1741869580
  H        36.5692526318       18.8314939024        1.8837528848
  H        37.2325813262       17.4304528336        6.8019800514
  H        35.1478297998       26.6740825881        3.3935976762
  H        28.5036105986       21.0621077769       15.9494842028
  H        25.7465995947       19.6384123726        4.1594449708
  H        23.5635356232       19.6907610119        5.3741956866
  H        22.3013190653       16.1745490494        3.2432447438
  H        24.4896692924       16.1394474929        2.0280741443
  H        23.7024526894       17.6494484484        6.7989931330
  H        29.0265341671       21.7023166040        1.7471967368
  H        29.1889350759       21.7207982913       14.6259642360
  H        32.1271261517       18.5717640165        2.9819020079
  H        27.3837927067       19.0297818201        0.0874506135
  H        14.8482382630       19.6450078496        4.1489925089
  H        17.0109068225       19.6890331298        5.3921473102
  H        18.3025254080       16.1863626014        3.2572896644
  H        16.1359118446       16.1570819913        2.0137760570
  H        16.9225007323       17.6882747026        6.8540164887
  H        46.0770214732       15.4519032198        4.0810732793
  H        43.9471315748       15.4048343843        5.3795663578
  H        42.5484323822       18.8334769126        3.1922722362
  H        44.6780837842       18.8569269963        1.8835858213
  H        44.0132980181       17.3649616563        6.8252810787
  H        20.2895701689       17.9229049682        3.4262609965
  H        46.0411280743       15.3991439361       12.0136719240
  H        43.9124498737       15.3487617216       10.7141880101
  H        42.5209987972       18.7982572314       12.8739288155
  H        44.6567215652       18.8359253510       14.1729077007
  H        44.0058238071       17.3420836611        9.2652216775
  H        46.1991958538       26.6825022263       12.6182006108
  H        52.7411698751       21.0626499621        0.1997365053
  H        14.8803160127       19.6734343471       11.8899463451
  H        17.0809926733       19.7468045432       10.7105355683
  H        18.3382996555       16.2325172599       12.8470676956
  H        16.1393021070       16.1826226457       14.0357971949
  H        16.9446360800       17.7057608672        9.2913807025
  H        52.3226464104       21.6732115787       14.2890912230
  H        52.0133104159       21.7021519990        1.5009764610
  H        49.0672884960       18.6076970117       13.1989375434
  H        13.2475528265       19.0164601096       15.9723461051
  H        29.9584665523       12.4300021978        4.2180397093
  H        28.8861416707       10.5084516649        5.3964199976
  H        25.2425882843       11.2105098512        3.2268019270
  H        26.3255447285       13.1333135549        2.0500091526
  H        27.1755713973       11.6662339239        6.7965588831
  H        31.0169076118       22.7328448271        4.0707494831
  H        32.0314731287       24.6153389103        5.3542814972
  H        35.6849108902       24.1477805473        3.1267912110
  H        34.6437047331       22.2790308778        1.8301725911
  H        33.7130666625       23.5542141801        6.7567110452
  H        25.7019042500        8.5938870088        3.4093877404
  H        30.9451056868       22.7128138569       11.9218528193
  H        31.9843306096       24.5651811230       10.6132219469
  H        35.6219985429       24.1025654138       12.8604671656
  H        34.5684634923       22.2480336378       14.1669180817
  H        33.6929197911       23.5384770452        9.1972557124
  H        40.5988639420       17.0957081954       12.6483048308
  H        32.5287991214       14.1513641081        0.2421413435
  H        29.8956865199       12.5295855608       11.9225988399
  H        28.8699936491       10.6287438984       10.6662885314
  H        25.2028878612       11.1748734766       12.8425742040
  H        26.2467863210       13.0610970873       14.1086326460
  H        27.1735273727       11.6793524390        9.2371630265
  H        33.2861065751       14.1418372738       14.4103237308
  H        33.4079989145       14.3709589636        1.6305231872
  H        32.0299081878       18.4994951466       13.0932989736
  H        30.2290092460       14.1907687012        0.0888684136
  H        16.1182086282        2.9634328292        4.1347495280
  H        14.9532022918        4.8205730379        5.3275547109
  H        17.3663135848        7.6859271905        3.2151511985
  H        18.5148328997        5.8183120122        2.0152593353
  H        16.7537385176        5.7397251893        6.7766553308
  H        44.8283821617       32.1401892310        3.9818968712
  H        45.9375404294       30.3413140864        5.3111674448
  H        43.6824986508       27.3783733773        3.1577522010
  H        42.5996952519       29.1900268146        1.8151102642
  H        44.2306398423       29.4368862101        6.7739690266
  H        14.8511970148        8.5463112227        3.3684245098
  H        44.9001616817       32.2338017142       11.9270318533
  H        46.0249952324       30.4128932978       10.6475287462
  H        43.7633188415       27.4839746119       12.8399910979
  H        42.6455621369       29.3176466116       14.1190812251
  H        44.2687664304       29.4705282623        9.2130636233
  H        35.0878086256       26.6102906990       12.6225818941
  H        36.6048961002       35.1342562978        0.1856874040
  H        16.1434662071        3.0130791365       11.8991614311
  H        14.9739769032        4.8563213472       10.6831848324
  H        17.3958306945        7.7471973664       12.7502594176
  H        18.5426468395        5.8932377975       13.9779752581
  H        16.7647622462        5.7556150540        9.2141906086
  H        36.2782739482       34.4826628726       14.2678150637
  H        36.3803746019       34.2090239275        1.5055492973
  H        40.5805053153       33.2024956838       13.1484427363
  H        17.4706058592        1.9475996578       15.9689313637
  H        28.7163254690       18.7555953448        4.3382514590
  H        29.7888688185       19.8739007510       11.6103273435
  H        32.2405967332       16.2929585485       11.7547464079
  H        30.8332639874       15.3729431060        4.2818413480
  H        28.6290902014       17.1941438531        7.0049755125
  H        29.7544250690       14.9119103439        6.4172432890
  H        31.3650394575       20.5418906042        9.1528458797
  H        32.8992741097       17.6495875420        9.3346790369
  H        28.7421716816       17.1557492114        9.6934599851
  H        18.8528612731        0.8690307982        4.3403274633
  H        40.5280718835       35.2289059025       11.9471335142
  H        42.3239977527       34.4190625403       11.5853233432
  H        22.0877576981        0.6920416470        4.3570273403
  H        11.5970759753       18.7129701672        4.3875693027
  H        52.2649169834       18.4310059628       11.6723551966
  H        49.2553114624       16.4766116561       11.5792571327
  H        10.1500277273       15.7980251871        4.2976486641
  H        50.8499802887       17.6924786298       11.9491818865
  H        10.0460267928       17.3944510216        4.0570501173
  H        20.2146944125        0.0015475514        4.0467360565
  H        39.1835416773       36.1243796708       11.6815564660
 Ni        31.0233058423       18.1194036031       10.7461121466
 Ni        31.0239830036       16.3148452424        8.4080700693
 Ni        29.9244044181       18.9837585136        7.7534780574
 Ni        30.0146291345       17.2274338511        5.3274405480
  O        10.6501956335       14.3654347973       13.4803098529
  O        12.6132633863       14.6586252778       14.5781132174
  O        49.1474002816       16.8457382603       15.9851232495
  O        50.3505005993       20.9358986083       13.6431727237
  O        48.3485732211       20.5937957704       14.6612072289
  O        11.0520429996       17.0539703280       14.4956046789
  O        50.3210079820       20.8817567123        2.4114032095
  O        48.3467757500       20.5872912221        1.3317269852
  O        49.5432447867       18.2480900801        2.0732614334
  O        12.3591831883       18.6244100500        0.0036355047
  O        48.6929395956       14.1481493623       14.7462619691
  O         8.2094385355       14.2113629321        1.3277691442
  O        10.7361176020       14.5078694577        2.6713124274
  O        12.5727728584       14.5839706345        1.3348573204
  O        22.8436128474        2.0420424168       13.4827510912
  O        21.6056823954        3.5919554585       14.5844930908
  O        42.0589197925       34.1389417914       15.9732513129
  O        37.9803545929       33.1360432221       13.5691250786
  O        39.2155391427       31.5778927997       14.6654468883
  O        20.3094291103        1.0392107760       14.4976725095
  O        38.0140832228       33.1848686653        2.4095540009
  O        39.2085201140       31.5840447112        1.3190019373
  O        40.6522470196       33.7708189085        2.0655853872
  O        18.2552779093        1.3764194230        0.0021171460
  O        44.6216460666       35.1003857647       14.7536894942
  O        24.2047290113       -0.0001754267        1.3257607097
  O        22.7524547937        2.0570858341        2.5884563523
  O        21.6241594365        3.5951563659        1.3474932081
  O        27.4884062421       18.7575081434       13.4903972083
  O        26.7610673063       16.9351447691       14.6552653593
  O        30.6351298981       19.3512937422        0.0671136779
  O        33.5559743434       16.3418011914       13.5827827548
  O        34.2596053663       18.1703909395       14.7319490313
  O        29.5717861341       17.0610659160       14.5597925673
  O        33.5468876948       16.3448100851        2.4324525419
  O        34.2953029211       18.2408432155        1.4195848513
  O        31.6533157609       18.3299473069        2.1700243436
  O        30.3179950309       15.1594273870        0.0912285530
  O        28.5580161149       21.0262905197       14.8892693699
  O        28.5182757381       20.9400575071        1.4203062842
  O        27.4632347374       18.6714100774        2.6747150466
  O        26.6976811524       16.9243265696        1.4259186079
  O        13.1491145480       18.6927157683        2.5928608533
  O        13.9185468169       16.9161756491        1.4099728779
  O        50.5965580915       19.3504785594        0.0255781884
  O        47.6792627461       16.3270910818        2.4224074168
  O        46.9504987050       18.1751966965        1.3281455468
  O        11.0698842596       17.0157815957        1.4947615703
  O        47.6755314499       16.3362123125       13.6472654066
  O        46.9271007607       18.2359584051       14.6587931436
  O        49.5687015328       18.3180203040       13.9770790384
  O        10.3181648617       15.1003961176        0.0003533141
  O        52.6708732693       21.0280910310        1.2468868445
  O        12.1465531060       20.8908657633       14.6680955974
  O        13.1078650807       18.6130894721       13.3210654774
  O        13.9565782320       16.9875656062       14.6602731299
  O        29.9907990179       14.4267632509        2.7404097448
  O        28.0821283910       14.6548515011        1.5033971095
  O        32.1403859814       16.8532288098        0.0738546891
  O        30.9592157112       20.9580128005        2.4245762832
  O        32.9282786379       20.5839122046        1.3429019567
  O        29.5511224331       17.0721743970        1.5855614284
  O        30.8747291673       20.9403832612       13.6486675766
  O        32.8667831220       20.5789664362       14.6613759908
  O        31.6765007969       18.2581656482       13.9822471501
  O        28.2660508269       18.6247066016        0.0836212088
  O        32.4929201357       14.2107385040        1.3323647318
  O        32.4091779628       14.2023407868       14.8239542391
  O        29.9053931407       14.4104734051       13.4791612403
  O        28.0292594529       14.5909286305       14.7570308367
  O        17.8875006643        1.9668473427        2.6667601778
  O        18.9552771604        3.5271471371        1.4119767656
  O        39.1658906896       34.1361531532        0.0023558214
  O        43.2817079539       33.0587815013        2.3366156808
  O        42.0356400909       31.5044467995        1.2463467042
  O        20.3185309341        1.0372702338        1.4849927266
  O        43.2771639918       33.1827181478       13.5706767329
  O        42.0066691002       31.5822090015       14.5784427782
  O        40.5771539032       33.7748382032       13.9307963491
  O        22.3671242314        1.3845472395        0.0036105077
  O        36.6742296544       35.0986416079        1.2381109171
  O        16.4465643976        0.0634303383       14.6632951525
  O        17.9332468485        2.0433741277       13.3232382328
  O        18.9174104274        3.5928499694       14.6624824356
  O        29.8202164808       18.9801267717       11.9997735774
  O        29.6961792084       18.7507415341        4.1621408468
  O        31.3578981863       16.0570998950       12.0842980801
  O        31.2206395559       16.2656422334        4.1500062794
  O        32.2450598256       17.0626441163        9.7525628202
  O        29.5702605663       17.5216442432        9.3372557954
  O        30.0308899378       15.8416618120        6.6783750285
  O        31.5277439016       17.7965902653        7.2435729751
  O        30.9041044276       19.6469911769        9.2291631325
  O        28.7680587154       18.0204482088        6.4972491377
  O        39.4567607670       35.2433035854       11.9958170529
  O        19.1412357138        0.0043439562        3.9967083229
  O        41.9695668364       35.1728389387       12.0820657620
  O        21.6913506459       -0.0689437353        3.9007652469
  O        51.3651863534       18.6142324699       12.0006269146
  O        10.7511398795       18.7470428222        3.9102841431
  O        50.0797300029       16.4128002033       12.0866069615
  O         9.5244343920       16.4830163398        3.9959138260
 Zr         9.2964805319       16.0532918553       14.1771952271
 Zr        49.8361430829       16.0068174237        1.7516258692
 Zr        22.0732557775        0.0289544271       14.1834516691
 Zr        42.4606289702       35.1520231202        1.8062110402
 Zr        29.5986151797       19.0757123440       14.2410446000
 Zr        29.5782950345       19.1474216512        1.8624765577
 Zr        11.0376624762       19.0520225607        1.8330202655
 Zr        11.0431004547       19.1549236023       14.2457209110
 Zr        31.3564983328       16.1153537835        1.8631955114
 Zr        31.3761879651       15.9777931024       14.2194603991
 Zr        18.6026217462       -0.0015729162        1.7690809753
 Zr        18.5072027506       -0.0072985743       14.2084072934
 Zr        12.3013497525       16.3230348382       15.9854099897
 Zr        48.6162298989       18.8331973218        0.0152418414
 Zr        20.3146749174        2.4732386499       15.9850838836
 Zr        40.6457291842       32.6873273875       15.9742818148
 Zr        28.3463441162       16.3355758384        0.0721558708
 Zr        32.6163169425       18.8189335281        0.0450946255
  H        32.2039956663       18.3899949404        7.7144487914
  O        30.7286032224       14.7928217457        9.8262924475
  H        30.9254142757       15.2419306453       10.7355483103
  H        29.7748546550       14.5830984626        9.8643675935
  O        33.2358885065       15.0965552234        6.2399479429
  H        33.9862587124       15.7323754565        6.3311445072
  H        32.6186669507       15.5880098827        5.6577532620
  O        27.8519846140       20.1524164118        8.1543672747
  H        27.4943147982       19.4310998229        7.6114995323
  H        27.9516003708       19.7929967756        9.0992040407
  O        30.3359842138       20.5998908300        6.2356692898
  H        30.1961286069       20.0426061406        5.4165580973
  H        29.5358385235       21.1523862963        6.2733386399
  H        32.1126789673       15.6104278731        7.7707382529
  H        32.1607411271       18.6587687575       11.4728207918
