     586
 i =      159, E =     -4847.8198482798
  C        11.8587167592       14.0535191053       13.7364244020
  C        12.4561616949       12.8905423487       13.0181880568
  C        11.7044090713       12.1715666461       12.0766018541
  C        12.2807591727       11.1093512987       11.3842443710
  C        13.6213521602       10.7395812148       11.6119199635
  C        14.3545822391       11.4432098026       12.5852998685
  C        13.7817265065       12.5081938092       13.2768178223
  C        14.2608875687        9.6489240449       10.8385239062
  C        14.2561765369        9.6568312425        9.4168285277
  C        13.7429600466       10.7589338625        8.6629295590
  C        49.1269094042       21.2332388826       13.8745226697
  C        48.5501946151       22.4011980572       13.1474655492
  C        49.3002039239       23.0685236858       12.1664596778
  C        48.7332466737       24.1076516479       11.4332583870
  C        47.4027075787       24.5092906215       11.6619122985
  C        46.6717845751       23.8604258096       12.6754578084
  C        47.2342614851       22.8155374078       13.4048034473
  C        46.7724125915       25.5869562237       10.8646407621
  C        46.7613483580       25.5573117802        9.4428825399
  C        47.2612998787       24.4422262935        8.6993851018
  C        14.8602174573        8.5705506774        8.7035680963
  C        14.8916583793        8.5969743272       11.5151764686
  C        49.1132557472       21.2034671155        2.1504284968
  C        48.5279147063       22.3648342246        2.8776044386
  C        49.2671064165       23.0254919287        3.8705803899
  C        48.6907761504       24.0600551899        4.6020360710
  C        47.3603919545       24.4568924225        4.3637305683
  C        46.6400422525       23.8120807130        3.3400958850
  C        47.2135949174       22.7761687231        2.6083261535
  C        46.7218978867       25.5318313396        5.1547527888
  C        46.7335839662       25.5281472523        6.5764542145
  C        47.2490113487       24.4289254034        7.3328330481
  C        40.6340704424       17.1386474075        7.3223627892
  C        40.6549817813       17.1718940572        4.5129285099
  C        11.8830505099       14.0865157487        2.2906175824
  C        12.4723623850       12.9107495622        2.9948514161
  C        11.7148154410       12.1775414482        3.9209388351
  C        12.2813917373       11.0950806674        4.5893530516
  C        13.6202235011       10.7213661460        4.3575557398
  C        14.3582325234       11.4369623587        3.3967966158
  C        13.7928231285       12.5181301611        2.7240922903
  C        14.2538020930        9.6246024796        5.1279631603
  C        14.2524690826        9.6445486919        6.5498037704
  C        13.7424530624       10.7534300035        7.2968834801
  C        22.5132771024        3.2447087676       13.7482934886
  C        23.2307853834        4.3494534518       13.0500677173
  C        24.2283554996        4.0679698178       12.1047925263
  C        24.8581057766        5.1063994906       11.4233414785
  C        24.5063621621        6.4489353384       11.6669229224
  C        23.5373502633        6.7219974783       12.6496060246
  C        22.9028709454        5.6853318627       13.3294272793
  C        25.1129186130        7.5545279964       10.8898130321
  C        25.0790112719        7.5485273551        9.4684051695
  C        24.3731728423        6.5501166644        8.7245605169
  C        38.3033783179       31.9282120423       13.8429429200
  C        37.5766362787       30.8366656592       13.1322134722
  C        36.6194849959       31.1368512855       12.1509157140
  C        36.0062052012       30.1141275214       11.4321427680
  C        36.3347212190       28.7655712838       11.6731470052
  C        37.2619790256       28.4729137788       12.6910459502
  C        37.8796056806       29.4942797161       13.4082717276
  C        35.7374563303       27.6708628658       10.8750477740
  C        35.7735142172       27.6840746530        9.4536202747
  C        36.4771253480       28.6883957972        8.7168142370
  C        25.6996063750        8.6184638704        8.7463977820
  C        25.7156266104        8.6278139071       11.5579823734
  C        38.3289463999       31.9623378521        2.1605354892
  C        37.6083044854       30.8877315719        2.9008826668
  C        36.6816300848       31.1935002013        3.9091541281
  C        36.0746868270       30.1725976897        4.6379538015
  C        36.3805276491       28.8211397457        4.3813926019
  C        37.2839968452       28.5254196472        3.3424355716
  C        37.8930606338       29.5426718750        2.6150606175
  C        35.7779701622       27.7190525890        5.1650195878
  C        35.7940162224       27.7088664081        6.5868346587
  C        36.4866760549       28.7004699481        7.3502335276
  C        46.1355298972       26.6207565848        7.2865933769
  C        46.0879719843       26.5802097195        4.4787004405
  C        22.4595100323        3.2554166680        2.2628912446
  C        23.1507583626        4.3643155273        2.9871625479
  C        24.1517767534        4.0789258411        3.9291915710
  C        24.7773320147        5.1096221349        4.6262100073
  C        24.4217580969        6.4549176990        4.4033150943
  C        23.4435957993        6.7335785058        3.4300201949
  C        22.8133347339        5.7031274403        2.7336216893
  C        25.0518212386        7.5534252722        5.1766640913
  C        25.0485103621        7.5470205841        6.5994163021
  C        24.3569355395        6.5502780185        7.3579381516
  C        26.6230088332       17.8606583895       13.7772297151
  C        25.3152389815       17.9054224018       13.0518638050
  C        25.0545281595       18.9038934615       12.0997658322
  C        23.8418389150       18.9241261078       11.4128922435
  C        22.8524476026       17.9493132599       11.6568268672
  C        23.1096754004       16.9736454500       12.6381646886
  C        24.3245603783       16.9479592167       13.3221074156
  C        21.5785164277       17.9350896161       10.8932841468
  C        21.5781141089       17.9115840201        9.4708973963
  C        22.7832182151       17.7848420176        8.7101446600
  C        34.4204551867       17.2271935163       13.8745411592
  C        35.7150744826       17.1711871010       13.1372712259
  C        35.9218310871       16.2022035184       12.1432188261
  C        37.1092981446       16.1823110156       11.4178466979
  C        38.1196298811       17.1315643877       11.6652757256
  C        37.9157402659       18.0804302111       12.6850706789
  C        36.7269717905       18.1039899719       13.4100544729
  C        39.3762068136       17.1385962827       10.8837870044
  C        39.3733571021       17.1522587665        9.4622018102
  C        38.1662689508       17.2652387291        8.7022604290
  C        20.3313905492       17.9293743831        8.7627041833
  C        20.3539029981       17.9389572139       11.5760752879
  C        34.4750494105       17.2468891117        2.1822000735
  C        35.7804820282       17.1676329346        2.9009593242
  C        36.0199885587       16.1477255762        3.8352684437
  C        37.2031764806       16.1352221086        4.5701484620
  C        38.1776358112       17.1342574297        4.3804682129
  C        37.9480430216       18.1250859297        3.4086725871
  C        36.7603763359       18.1472026905        2.6822216117
  C        39.4245013863       17.1528639215        5.1768837848
  C        39.3984658958       17.1568324558        6.5969885533
  C        38.1783606586       17.2627497348        7.3358311227
  C        35.1696409452       26.6259646435        7.2901379268
  C        35.1866411950       26.6496961781        4.4811491458
  C        26.5687928835       17.8217124373        2.3326043847
  C        25.2547085192       17.8721637092        3.0368803248
  C        24.9935457916       18.8737756101        3.9839736577
  C        23.7756098154       18.9001231342        4.6570340561
  C        22.7900932370       17.9243614908        4.4071886224
  C        23.0452516546       16.9482444141        3.4269069636
  C        24.2637283550       16.9199632031        2.7518598970
  C        21.5273418851       17.9049336799        5.1810398937
  C        21.5521999418       17.8942170414        6.6025590324
  C        22.7710137832       17.7760913021        7.3438736073
  C        14.0464308149       17.8286804867        2.2941539066
  C        15.3504643063       17.8853849096        3.0201147173
  C        15.6064472472       18.8879017218        3.9686283661
  C        16.8151171905       18.9084662415        4.6620502482
  C        17.8020545565       17.9294295561        4.4289381583
  C        17.5507582033       16.9510431102        3.4484687549
  C        16.3415071229       16.9258280282        2.7567066219
  C        19.0712515885       17.9123948313        5.1976862794
  C        19.0706569897       17.9086122486        6.6201571184
  C        17.8639721568       17.8093513990        7.3818363321
  C        46.8071834193       17.2201166815        2.1643239511
  C        45.5193429096       17.1636450200        2.9120129517
  C        45.3137459369       16.1913521744        3.9026647823
  C        44.1333189377       16.1801505850        4.6403867530
  C        43.1303703563       17.1412012482        4.4078512185
  C        43.3334723322       18.0933740945        3.3911159271
  C        44.5146249063       18.1087016765        2.6547914220
  C        41.8775059249       17.1562364526        5.1944759548
  C        41.8815939267       17.1557888482        6.6159410319
  C        43.0892546510       17.2540298039        7.3764995965
  C        20.3177678768       17.9196381214        7.3279015331
  C        20.2950366836       17.8939887035        4.5149523968
  C        46.7850725294       17.2319021637       13.8838929917
  C        45.4813403819       17.1289507439       13.1688134362
  C        45.2611957627       16.1346694984       12.2037023370
  C        44.0728404153       16.1128146288       11.4777892844
  C        43.0753778154       17.0819507932       11.7003405257
  C        43.2854054755       18.0452516663       12.7045206079
  C        44.4750521333       18.0738030111       13.4250977291
  C        41.8300031581       17.1097116695       10.9023246326
  C        41.8572428331       17.1311275571        9.4816552313
  C        43.0776025265       17.2395378797        8.7429446695
  C        46.1533258121       26.6371908185        8.7211402472
  C        46.1624697343       26.6560758268       11.5307847140
  C        14.0459086000       17.8318519908       13.7037124177
  C        15.3673771881       17.9064795115       13.0136725087
  C        15.6409682794       18.9215156324       12.0846940271
  C        16.8702179276       18.9588288518       11.4301991812
  C        17.8538072191       17.9803208142       11.6788125714
  C        17.5871769333       16.9944613398       12.6462971189
  C        16.3599029600       16.9565724593       13.3042344564
  C        19.1210982695       17.9550545977       10.9095540385
  C        19.0965547945       17.9293617242        9.4880451273
  C        17.8765699900       17.8186184405        8.7478284353
  C        28.8019963363       14.0890562445        2.3978630170
  C        28.1883609217       12.9178442015        3.0858218843
  C        28.9193765473       12.1549777681        4.0088902669
  C        28.3167456792       11.0822619910        4.6611529175
  C        26.9712883286       10.7461704820        4.4099064887
  C        26.2617046018       11.4876957036        3.4486340051
  C        26.8607315557       12.5628729494        2.7977008823
  C        26.3027933580        9.6657459850        5.1707291509
  C        26.2960851045        9.6915727783        6.5913193418
  C        26.8033289912       10.8045891653        7.3339644425
  C        32.1802081694       21.2371278008        2.1471066650
  C        32.7774829741       22.4019680185        2.8646290477
  C        32.0409736114       23.0668411219        3.8568037177
  C        32.6163318709       24.1042256946        4.5836396162
  C        33.9446317295       24.5036814883        4.3403031606
  C        34.6634936558       23.8570470860        3.3171616646
  C        34.0902620716       22.8147781407        2.5914379104
  C        34.5786568319       25.5757944940        5.1402027695
  C        34.5797721523       25.5415258131        6.5616756207
  C        34.0815898696       24.4208970453        7.2985976304
  C        25.6883288477        8.6141054770        7.3120208360
  C        25.6640822771        8.6162039700        4.4984441848
  C        32.1053402569       21.2206459275       13.8694503832
  C        32.7031311621       22.3612220606       13.1153569604
  C        31.9821532220       23.0038148922       12.0970761446
  C        32.5671067003       24.0336167862       11.3638383947
  C        33.8867849620       24.4498419156       11.6293288384
  C        34.5912391139       23.8169392904       12.6713400418
  C        34.0111787711       22.7823217795       13.4004749227
  C        34.5303059733       25.5317899081       10.8493882607
  C        34.5551287773       25.5194010389        9.4277433446
  C        34.0696745999       24.4108083049        8.6650597968
  C        40.6211018140       17.1310516788        8.7562058535
  C        40.5982762209       17.1328435748       11.5656486250
  C        28.7441565570       14.0683353071       13.8143044965
  C        28.1380110453       12.9225983044       13.0728717482
  C        28.8719251303       12.2413490543       12.0888147099
  C        28.2930531870       11.1841781520       11.3896337309
  C        26.9665587299       10.7828281717       11.6489761420
  C        26.2513544613       11.4537018152       12.6586325720
  C        26.8273736820       12.5109587783       13.3597845091
  C        26.3246109641        9.6911953540       10.8783165199
  C        26.3071830009        9.7055753734        9.4566340267
  C        26.8049217995       10.8125121280        8.6996319493
  C        18.1355035831        3.1810472796        2.3222618637
  C        17.4062209122        4.2782781165        3.0209159485
  C        16.3904466657        3.9999331900        3.9483772114
  C        15.7427137717        5.0399160951        4.6118673697
  C        16.0946879670        6.3836309986        4.3722423273
  C        17.0841563829        6.6531484537        3.4085644780
  C        17.7332446600        5.6158004086        2.7435166812
  C        15.4703106989        7.4913126168        5.1352709910
  C        15.4855510659        7.4906087393        6.5569857031
  C        16.1871101519        6.4969937742        7.3101578945
  C        42.9459189860       31.8595505386        2.0779800838
  C        43.6463434643       30.7718824949        2.8219188107
  C        44.5919417753       31.0932120802        3.8079175931
  C        45.1976525556       30.0876644989        4.5555895864
  C        44.8711563541       28.7346112932        4.3407921127
  C        43.9453103174       28.4202659043        3.3275998739
  C        43.3364866042       29.4254017053        2.5795601152
  C        45.4887118865       27.6552965712        5.1439832017
  C        45.4928616932       27.6809112483        6.5656768864
  C        44.8058119063       28.6889819614        7.3123065023
  C        14.8564800351        8.5630395232        7.2693487102
  C        14.8750638836        8.5630960157        4.4566677524
  C        42.9464787884       31.9615700876       13.8038305102
  C        43.6917724443       30.8854340820       13.0904072156
  C        44.6565001291       31.1913431614       12.1182430175
  C        45.2780427104       30.1717615696       11.4005150538
  C        44.9541047396       28.8214583063       11.6379950249
  C        44.0205205709       28.5237776985       12.6486764934
  C        43.3922441416       29.5405395509       13.3608473689
  C        45.5631364963       27.7240552697       10.8527378981
  C        45.5333709475       27.7173496416        9.4314413889
  C        44.8270993614       28.7076223645        8.6784922788
  C        35.1581090495       26.6141549594        8.7247973378
  C        35.1327079560       26.5944236176       11.5341688313
  C        18.1485630598        3.2469608900       13.7014318405
  C        17.4299459807        4.3437840556       12.9921766516
  C        16.4146584166        4.0525085760       12.0686908586
  C        15.7663292323        5.0831446329       11.3933256883
  C        16.1210420985        6.4283726794       11.6160132469
  C        17.1125126505        6.7117539908       12.5731716804
  C        17.7602175360        5.6828449934       13.2529148943
  C        15.4905323178        7.5240713635       10.8435862175
  C        15.4964455168        7.5074555777        9.4224550422
  C        16.1932798031        6.5057971268        8.6757644981
  H        10.6722403243       12.4656137514       11.8996709824
  H        11.6944128810       10.5508066151       10.6577994683
  H        15.3916385991       11.1686566172       12.7669426791
  H        14.3512419584       13.0714628534       14.0121757215
  H        13.3758175377       11.6309984626        9.1962456090
  H        50.3229183911       22.7485133832       11.9817032393
  H        49.3197173509       24.6229485124       10.6756885346
  H        45.6423053067       24.1612288219       12.8586685180
  H        46.6632805517       22.2903039530       14.1669258004
  H        47.6298842799       23.5758679662        9.2410716115
  H        14.8720002070        8.5882188872       12.6034815725
  H        50.2871439418       22.7026278064        4.0655182104
  H        49.2691579466       24.5754993854        5.3655563972
  H        45.6106965500       24.1094550967        3.1509132968
  H        46.6528345238       22.2541007582        1.8366524958
  H        47.6078461297       23.5518307464        6.8019329993
  H        40.6622442373       17.1432537160        3.4250332238
  H        48.6869891452       14.0949278898       15.7949037422
  H        10.6813182732       12.4665561748        4.0982828244
  H        11.6895488899       10.5246171067        5.3019540031
  H        15.3936819079       11.1591007866        3.2109243041
  H        14.3652109089       13.0875381595        1.9956320922
  H        13.3755661076       11.6220198755        6.7582478815
  H        47.9303612073       14.2175139244        1.7161715322
  H        47.7798926131       14.3727887957       14.4899251158
  H        49.0844062907       18.5527699028        2.8726059701
  H        10.4160422421       14.1342664421        0.0037587109
  H        24.4877770045        3.0289769212       11.9140654047
  H        25.6313650022        4.8873479805       10.6901672223
  H        23.2582165421        7.7554285598       12.8443504513
  H        22.1324477796        5.8873340863       14.0695799521
  H        23.8137661439        5.7933644211        9.2667858054
  H        36.3809414407       32.1792812482       11.9533204985
  H        35.2638198846       30.3510430802       10.6731774884
  H        37.5236186626       27.4346725538       12.8845943027
  H        38.6213355741       29.2756524015       14.1728122546
  H        37.0401167337       29.4394914124        9.2632356396
  H        25.7564296868        8.6096345379       12.6455838576
  H        36.4583495859       32.2370644659        4.1192880056
  H        35.3508372185       30.4146133338        5.4129897664
  H        37.5313742871       27.4858683703        3.1378689878
  H        38.6137176051       29.3199737480        1.8320311248
  H        37.0579670345       29.4604621601        6.8249990508
  H        46.1094609760       26.5876668975        3.3906654900
  H        44.6683710546       35.1162164152       15.8088246421
  H        24.4304769378        3.0409600820        4.0963069353
  H        25.5578047537        4.8819198110        5.3490947234
  H        23.1578725680        7.7678432065        3.2493573983
  H        22.0423139065        5.9148342831        1.9964282178
  H        23.7842442058        5.7943610860        6.8284507556
  H        44.9542804382       34.3907829484        1.7004649783
  H        44.9022709668       34.2070217244       14.4854484282
  H        40.6660371825       33.2091463528        2.8581655409
  H        23.1504572102        1.9578585411        0.0104612549
  H        25.8151516516       19.6605589107       11.9191274180
  H        23.6432475059       19.7053310600       10.6820221442
  H        22.3579286075       16.2120719201       12.8355489136
  H        24.5335463353       16.1808527597       14.0641696784
  H        23.7232221092       17.6620348338        9.2402105139
  H        35.1383384903       15.4746006757       11.9457731359
  H        37.2690582295       15.4222031569       10.6562700368
  H        38.6886923324       18.8210969858       12.8795492829
  H        36.5523867912       18.8494029061       14.1824663392
  H        37.2252163035       17.3807813022        9.2322219958
  H        20.3610994731       17.9805300307       12.6638841533
  H        35.2636345533       15.3787855830        3.9818602401
  H        37.3883375711       15.3441493089        5.2940670872
  H        38.6967548771       18.9000475792        3.2577663063
  H        36.5586601104       18.9292393434        1.9539767824
  H        37.2472655871       17.3749476189        6.7877962255
  H        35.1520527353       26.6804012772        3.3937778058
  H        28.5037241104       21.0690015449       15.9563495484
  H        25.7571286164       19.6236728618        4.1764155943
  H        23.5728632576       19.6808446314        5.3869285953
  H        22.2923205802       16.1883244152        3.2281168793
  H        24.4772079095       16.1542580504        2.0099016987
  H        23.7019710326       17.6468869387        6.7996499497
  H        29.0134263838       21.7137951971        1.7575992954
  H        29.1794379420       21.7281526253       14.6247749724
  H        32.1366918341       18.5869057366        2.9636612563
  H        27.3764039874       19.0231246846        0.0826840204
  H        14.8477493590       19.6466251221        4.1470831956
  H        17.0099074767       19.6921904265        5.3909979706
  H        18.3023033096       16.1872041938        3.2595615146
  H        16.1359574026       16.1571944437        2.0154737745
  H        16.9213630268       17.6932966779        6.8548505654
  H        46.0956593539       15.4584131009        4.0869983682
  H        43.9724342813       15.4187319884        5.4003721125
  H        42.5662556524       18.8429421280        3.2086603036
  H        44.6896527177       18.8575796639        1.8859973023
  H        44.0312122899       17.3724820527        6.8486208927
  H        20.2884747083       17.9250936538        3.4268650504
  H        46.0369911117       15.3939421409       12.0236315947
  H        43.9047810929       15.3418891211       10.7289016567
  H        42.5200351292       18.7976566200       12.8830169888
  H        44.6592922524       18.8369848488       14.1771723221
  H        44.0107898392       17.3453619690        9.2886176718
  H        46.1993954289       26.6826671777       12.6182290292
  H        52.7411978703       21.0626623721        0.1998043155
  H        14.8803491449       19.6749297847       11.8920422170
  H        17.0811701042       19.7488764693       10.7126717878
  H        18.3378169663       16.2325631277       12.8462148940
  H        16.1388738578       16.1823413845       14.0349275311
  H        16.9434220671       17.7096409596        9.2922856082
  H        52.3226357596       21.6733101118       14.2890829462
  H        52.0133662659       21.7021528301        1.5008059133
  H        49.0676288335       18.6077153435       13.1987921763
  H        13.2477280046       19.0163032915       15.9722473021
  H        29.9598507470       12.4106163016        4.1976324024
  H        28.8838644847       10.4906551786        5.3766537021
  H        25.2221109522       11.2368126316        3.2482299402
  H        26.3112767995       13.1576729101        2.0721721011
  H        27.1644787425       11.6734076776        6.7917048649
  H        31.0223547664       22.7431570612        4.0550882868
  H        32.0403150924       24.6186081518        5.3496409538
  H        35.6915216753       24.1564615087        3.1235734112
  H        34.6507795501       22.2899962265        1.8211734608
  H        33.7300305228       23.5503533693        6.7521123359
  H        25.6899870190        8.5976854922        3.4103319952
  H        30.9661042522       22.6781849513       11.8865665122
  H        31.9999467404       24.5345860663       10.5823915869
  H        35.6133871213       24.1254237732       12.8809337575
  H        34.5599652689       22.2727523951       14.1890435057
  H        33.7104945723       23.5318244509        9.1925016980
  H        40.5892028565       17.0920428484       12.6531937036
  H        32.5206674193       14.1564683516        0.2496858622
  H        29.8970186843       12.5498881176       11.8916909935
  H        28.8705105396       10.6500224927       10.6380560599
  H        25.2250143577       11.1570458065       12.8649652322
  H        26.2721668346       13.0442586682       14.1278305555
  H        27.1658206058       11.6879826228        9.2311073049
  H        33.2966571640       14.1885892559       14.4303305666
  H        33.4067914691       14.3696963216        1.6245116748
  H        32.0409642721       18.5017638965       13.1214733545
  H        30.2324840817       14.1932052552        0.0786692128
  H        16.1183304970        2.9634349209        4.1347255840
  H        14.9531801626        4.8205446550        5.3274410026
  H        17.3666407956        7.6860224552        3.2155197741
  H        18.5153345066        5.8184484116        2.0157265140
  H        16.7537260961        5.7396985456        6.7766550727
  H        44.8283202574       32.1402868717        3.9820265376
  H        45.9376019840       30.3414269684        5.3114511714
  H        43.6826262235       27.3781925700        3.1574903858
  H        42.5998785158       29.1900836891        1.8148815461
  H        44.2305716975       29.4368307517        6.7739919587
  H        14.8513390268        8.5463448111        3.3684443012
  H        44.9002038665       32.2340129311       11.9269308424
  H        46.0250791957       30.4129976651       10.6474067610
  H        43.7635046822       27.4840446735       12.8401582756
  H        42.6456925334       29.3177561749       14.1192447778
  H        44.2686979119       29.4705807468        9.2130897219
  H        35.0834772276       26.6094200760       12.6213390053
  H        36.6051194856       35.1339832429        0.1858552469
  H        16.1435292074        3.0129350022       11.8990188822
  H        14.9739302089        4.8563107508       10.6833198848
  H        17.3960773833        7.7472149617       12.7499986584
  H        18.5431987408        5.8932926520       13.9775654424
  H        16.7647193234        5.7555701285        9.2142126131
  H        36.2783654137       34.4825905802       14.2678358547
  H        36.3809116772       34.2092496713        1.5049270467
  H        40.5804254504       33.2026064144       13.1481742385
  H        17.4708874643        1.9476294176       15.9689274637
  H        28.7950772964       19.0199261379        4.3687306626
  H        29.7999509073       19.7701866707       11.6098986164
  H        32.2445755317       16.1998246480       11.7190558214
  H        30.8781161154       15.3944479791        4.2612072272
  H        28.3373841044       17.4008849733        6.8973646426
  H        29.9981399595       14.8987103821        6.5099938201
  H        31.7428780143       20.2383361488        9.4835138870
  H        32.9335513111       17.6020087999        9.1391969895
  H        28.8583901156       17.1717050916        9.5946276881
  H        18.8534644898        0.8689663252        4.3404281530
  H        40.5279943140       35.2289892230       11.9469131380
  H        42.3245843278       34.4195062525       11.5849446544
  H        22.0877259438        0.6919691247        4.3567576955
  H        11.5968147932       18.7131066452        4.3877037970
  H        52.2648982352       18.4310689099       11.6720444258
  H        49.2552601871       16.4766104584       11.5791788606
  H        10.1503487762       15.7981236508        4.2978897669
  H        50.8500169827       17.6924236874       11.9491303540
  H        10.0462580011       17.3944580311        4.0570512633
  H        20.2148571739        0.0022396413        4.0470511499
  H        39.1836821670       36.1244093035       11.6814446103
 Ni        31.0733426981       18.0355883567       10.7432265684
 Ni        31.0691332546       16.2835199110        8.2454575192
 Ni        29.9688982547       19.0652559978        7.9899234889
 Ni        30.1023790609       17.3735743655        5.3347246348
  O        10.6499165873       14.3651298093       13.4807445616
  O        12.6131633280       14.6575206741       14.5787858742
  O        49.1481050168       16.8458955344       15.9845664044
  O        50.3503162519       20.9357877705       13.6429015415
  O        48.3485838003       20.5933737151       14.6607607840
  O        11.0516532726       17.0538274161       14.4955763526
  O        50.3210480949       20.8816495961        2.4119403952
  O        48.3467808575       20.5867854826        1.3322184493
  O        49.5438569294       18.2484359010        2.0733109437
  O        12.3592236375       18.6246241701        0.0047807096
  O        48.6932605007       14.1486277925       14.7461763683
  O         8.2099488961       14.2103644106        1.3275924325
  O        10.7354238328       14.5067631958        2.6693996875
  O        12.5718312598       14.5828355641        1.3335774017
  O        22.8447222768        2.0432399305       13.4819916438
  O        21.6059894306        3.5925664343       14.5839977781
  O        42.0582412180       34.1374514389       15.9737674636
  O        37.9816970981       33.1363723551       13.5669415219
  O        39.2182969332       31.5758928470       14.6616242113
  O        20.3083891113        1.0394439743       14.4968936729
  O        38.0246316455       33.1857254489        2.4202742694
  O        39.2195778446       31.5841686286        1.3310330303
  O        40.6523086762       33.7694359999        2.0652803188
  O        18.2556174288        1.3765287156        0.0018029543
  O        44.6222157319       35.1005744367       14.7536496733
  O        24.2053872430        0.0000427974        1.3258795519
  O        22.7528103107        2.0575837957        2.5887809017
  O        21.6241137746        3.5956774725        1.3470543325
  O        27.4961632921       18.7518881947       13.4912735008
  O        26.7642715536       16.9306383635       14.6464876235
  O        30.6391586412       19.3520093949        0.0684637379
  O        33.5449782716       16.3384872195       13.5797417918
  O        34.2749592138       18.1666878741       14.7287410598
  O        29.5738157805       17.0576947944       14.5637880513
  O        33.6123693497       16.3331249851        2.4217841673
  O        34.3035904793       18.2473391687        1.4093074954
  O        31.6525488945       18.3116020141        2.1691966000
  O        30.3250807499       15.1601136802        0.0882705490
  O        28.5559086395       21.0281345407       14.8913174600
  O        28.5131975641       20.9528017628        1.4167787496
  O        27.4591183344       18.6749875518        2.6680327401
  O        26.6931430758       16.9270210071        1.4213111501
  O        13.1487047511       18.6929738369        2.5925572207
  O        13.9194253464       16.9162519517        1.4101799259
  O        50.5963888851       19.3502761312        0.0254167013
  O        47.6839337747       16.3269741090        2.4222628976
  O        46.9526787101       18.1760856738        1.3289357989
  O        11.0699228890       17.0154848447        1.4947316442
  O        47.6750312006       16.3358052027       13.6476641770
  O        46.9274121523       18.2360645819       14.6596666648
  O        49.5686962487       18.3176966996       13.9770633157
  O        10.3186737617       15.1001182497        0.0021865082
  O        52.6707721386       21.0278727792        1.2469235136
  O        12.1468624489       20.8911656331       14.6681084774
  O        13.1084140596       18.6136059642       13.3204490731
  O        13.9574145876       16.9870792192       14.6602359359
  O        29.9904386154       14.4397897403        2.7369869951
  O        28.0893119298       14.6525330506        1.5004865169
  O        32.1400833189       16.8524298684        0.0765224452
  O        30.9652403889       20.9483148082        2.4153282853
  O        32.9449595150       20.5982742101        1.3403437215
  O        29.5703888382       17.0720833511        1.5850384921
  O        30.8720279487       20.9460708143       13.6579078917
  O        32.8759557937       20.5853325880       14.6623775008
  O        31.6770047649       18.2523087692       13.9954772202
  O        28.2646613528       18.6316001072        0.0822265564
  O        32.4906253683       14.2133026008        1.3312684232
  O        32.4059663553       14.2219949695       14.8172435029
  O        29.9159267602       14.4404281163       13.4834537777
  O        28.0382755285       14.5884937485       14.7483088326
  O        17.8892417796        1.9666686593        2.6679177012
  O        18.9562363236        3.5271932324        1.4130451702
  O        39.1685894774       34.1388116665        0.0022462631
  O        43.2802411555       33.0589603295        2.3368061658
  O        42.0345584299       31.5064447554        1.2467130399
  O        20.3177638948        1.0368408542        1.4851544387
  O        43.2760703245       33.1825187626       13.5697608292
  O        42.0052937262       31.5840570918       14.5778585503
  O        40.5789358946       33.7749380422       13.9305386161
  O        22.3673333868        1.3846314430        0.0028909582
  O        36.6727974626       35.0998164583        1.2384107243
  O        16.4456353092        0.0641565837       14.6630799112
  O        17.9364969506        2.0433381125       13.3212605019
  O        18.9190642205        3.5931434913       14.6607433261
  O        29.8605347081       18.9107246525       12.0696994403
  O        29.7324529835       18.9779751777        4.0840860533
  O        31.3103310793       16.2624409147       12.0002990394
  O        31.2957471126       16.2623160958        4.0851416354
  O        32.3147211438       16.9956416657        9.5769361464
  O        29.7299116810       17.5030685151        9.3259820391
  O        29.8614470460       15.8107079564        6.8148891727
  O        31.2795803726       17.9520488986        6.9136334050
  O        30.9296489170       19.7196881433        9.5865487506
  O        28.6382242464       18.2419527335        6.5038532655
  O        39.4568029335       35.2437109100       11.9968355038
  O        19.1414034016        0.0045367445        3.9956239763
  O        41.9695944346       35.1727723761       12.0820481982
  O        21.6912172726       -0.0693352939        3.9010050089
  O        51.3651352346       18.6142619193       12.0002901979
  O        10.7510961098       18.7471926823        3.9100111198
  O        50.0795832492       16.4128416969       12.0866661571
  O         9.5245640490       16.4830297617        3.9963093363
 Zr         9.2969132453       16.0526883226       14.1773603120
 Zr        49.8366559653       16.0065110679        1.7514455923
 Zr        22.0734503961        0.0300563235       14.1837664505
 Zr        42.4610708559       35.1535352971        1.8060070666
 Zr        29.6020715256       19.0818847946       14.2481586752
 Zr        29.5743068565       19.1695006999        1.8708646614
 Zr        11.0382038574       19.0519000899        1.8327697806
 Zr        11.0441667339       19.1547595199       14.2458436316
 Zr        31.3652270144       16.1069654129        1.8614462997
 Zr        31.3766305215       16.0128133285       14.2338673160
 Zr        18.6013650214       -0.0009615785        1.7683960445
 Zr        18.5065113895       -0.0078312535       14.2086351069
 Zr        12.3022607112       16.3234988117       15.9851148872
 Zr        48.6169974563       18.8332392873        0.0150816949
 Zr        20.3152590194        2.4736371871       15.9850026398
 Zr        40.6437285488       32.6873158772       15.9729547049
 Zr        28.3453485616       16.3395427104        0.0835457445
 Zr        32.6201467149       18.8333936078        0.0435711475
  H        32.1576664396       18.3274018554        6.7389701503
  O        30.6709678488       14.7336371075        9.8217011077
  H        30.8098943541       15.2254553309       10.6928008817
  H        29.7451037845       14.4419262097        9.8415696320
  O        33.3311774878       15.2443223815        5.9033599646
  H        34.1054039540       15.8233815960        5.9864306152
  H        32.7451532289       15.7081894591        5.2535593596
  O        27.9653827496       20.1497966623        8.1609429326
  H        27.8169872483       19.4516412572        7.4540157034
  H        27.4594299652       19.8714186763        8.9418920881
  O        30.3318790381       20.5865267226        6.4180243901
  H        30.1880969703       20.1109382424        5.5525418468
  H        29.5911788651       21.2119837532        6.4929682714
  H        32.0989298410       15.5614479580        7.5470525780
  H        32.2044989997       18.5776314243       11.4549188713
