     586
 i =      176, E =     -4847.7763217029
  C        11.8586755325       14.0535508995       13.7364486848
  C        12.4561648061       12.8905539535       13.0181746038
  C        11.7044200033       12.1715856176       12.0765927180
  C        12.2807789281       11.1093613403       11.3842413560
  C        13.6213703932       10.7396125183       11.6119196486
  C        14.3545805789       11.4432156295       12.5853320206
  C        13.7817103921       12.5082032866       13.2768353484
  C        14.2609284265        9.6489662310       10.8385128314
  C        14.2563337218        9.6569155262        9.4168139001
  C        13.7430504142       10.7589831258        8.6629096295
  C        49.1268435851       21.2332350900       13.8745356074
  C        48.5500871989       22.4011419116       13.1474145872
  C        49.3001657815       23.0686711693       12.1666001507
  C        48.7332164732       24.1077974405       11.4333970234
  C        47.4025828909       24.5092020516       11.6618839279
  C        46.6715021808       23.8600891509       12.6751441836
  C        47.2340073979       22.8151960436       13.4044758605
  C        46.7723463304       25.5869141120       10.8646225393
  C        46.7613515225       25.5573384901        9.4428665603
  C        47.2612731883       24.4422359550        8.6993826052
  C        14.8603750923        8.5706306230        8.7035571698
  C        14.8916600800        8.5970041607       11.5151783182
  C        49.1132212637       21.2034348531        2.1504399540
  C        48.5278521450       22.3647364295        2.8777052724
  C        49.2671446087       23.0255809509        3.8704798257
  C        48.6907967921       24.0601416444        4.6019227402
  C        47.3603343083       24.4567984206        4.3637762476
  C        46.6398594047       23.8117447306        3.3403938672
  C        47.2134123890       22.7758237880        2.6086361311
  C        46.7218938904       25.5318033242        5.1547610283
  C        46.7336116583       25.5281686859        6.5764611471
  C        47.2489971495       24.4289213686        7.3328322257
  C        40.6344998647       17.1443377962        7.3212179812
  C        40.6540677448       17.1765109993        4.5118830715
  C        11.8829772167       14.0865792549        2.2905939954
  C        12.4723442835       12.9107476396        2.9948122113
  C        11.7147996329       12.1774481993        3.9208183013
  C        12.2813650405       11.0949937330        4.5892701036
  C        13.6202170594       10.7213693483        4.3575161031
  C        14.3582563344       11.4369749515        3.3967940187
  C        13.7928033346       12.5181251742        2.7240898530
  C        14.2538668192        9.6246493912        5.1279443694
  C        14.2526100252        9.6446029819        6.5497847063
  C        13.7425703391       10.7534691646        7.2968647276
  C        22.5127001878        3.2445052964       13.7483131611
  C        23.2292494985        4.3497277378       13.0498203201
  C        24.2257356782        4.0691216212       12.1032324672
  C        24.8541908198        5.1082468254       11.4216966444
  C        24.5021748832        6.4503946837       11.6669829212
  C        23.5343628914        6.7226160891       12.6510481600
  C        22.9010471225        5.6852037988       13.3306265238
  C        25.1072000135        7.5568200543       10.8903490298
  C        25.0725942383        7.5517302518        9.4687519590
  C        24.3667413746        6.5537076877        8.7248349560
  C        38.3041049944       31.9287528321       13.8425923799
  C        37.5788836038       30.8376129179       13.1305690738
  C        36.6225227937       31.1382391873       12.1487191659
  C        36.0104343893       30.1157112753       11.4288894344
  C        36.3396592211       28.7673679634       11.6697195471
  C        37.2665308839       28.4742453168       12.6877511867
  C        37.8829429845       29.4953996352       13.4060276897
  C        35.7419257948       27.6728727357       10.8724062923
  C        35.7757929660       27.6856691879        9.4510565864
  C        36.4795940484       28.6890197842        8.7132279185
  C        25.6922911214        8.6223978721        8.7472529157
  C        25.7094203696        8.6300147400       11.5590078316
  C        38.3286552429       31.9620976472        2.1602038587
  C        37.6077869084       30.8869587679        2.8995786417
  C        36.6803544973       31.1917852683        3.9074383916
  C        36.0736548210       30.1701929063        4.6354581702
  C        36.3805526799       28.8189585846        4.3787557589
  C        37.2844489519       28.5241566568        3.3399402981
  C        37.8932170998       29.5421004576        2.6132365049
  C        35.7789295145       27.7167027125        5.1628643955
  C        35.7949001090       27.7078686298        6.5846596166
  C        36.4883424454       28.6999283646        7.3466805169
  C        46.1356466004       26.6208340254        7.2865831955
  C        46.0879665283       26.5801557669        4.4786741376
  C        22.4590807075        3.2557236645        2.2630552938
  C        23.1489799233        4.3657062072        2.9875644919
  C        24.1497308210        4.0821979263        3.9304022385
  C        24.7733644049        5.1141645197        4.6274185800
  C        24.4162988416        6.4589770909        4.4035493676
  C        23.4386268205        6.7357731675        3.4291958836
  C        22.8101340372        5.7040259849        2.7330873069
  C        25.0443043633        7.5586325558        5.1770065372
  C        25.0410431522        7.5518749594        6.6000028864
  C        24.3501234569        6.5545782268        7.3579785111
  C        26.6269240271       17.8599515373       13.7782602259
  C        25.3188618099       17.9031632953       13.0527769817
  C        25.0590955504       18.8976568684       12.0962690093
  C        23.8464228885       18.9160425947       11.4092032594
  C        22.8556064245       17.9435030470       11.6571854007
  C        23.1120182542       16.9719545829       12.6429740956
  C        24.3269476361       16.9479620370       13.3270182130
  C        21.5814981291       17.9277589831       10.8936351403
  C        21.5809419287       17.9020742172        9.4710482926
  C        22.7857369901       17.7725104252        8.7103122123
  C        34.4227273742       17.2261867057       13.8707674745
  C        35.7179930991       17.1704056776       13.1359752593
  C        35.9227916339       16.2037284063       12.1394163603
  C        37.1103480669       16.1842085270       11.4142604383
  C        38.1219020680       17.1314526224       11.6646741785
  C        37.9198787108       18.0774408706       12.6873550303
  C        36.7309916602       18.1007779095       13.4119968017
  C        39.3781572416       17.1396939895       10.8830334483
  C        39.3749801327       17.1573377053        9.4615474058
  C        38.1678780171       17.2760940896        8.7026096672
  C        20.3342437609       17.9203328975        8.7626897703
  C        20.3565081006       17.9329924318       11.5761900602
  C        34.4762816719       17.2495192758        2.1795159274
  C        35.7801552093       17.1725912825        2.9004970924
  C        36.0129473565       16.1614054950        3.8457960774
  C        37.1966038933       16.1498088802        4.5797804220
  C        38.1766949487       17.1413465470        4.3802613695
  C        37.9523172087       18.1242557664        3.3990327173
  C        36.7649841568       18.1451669496        2.6721572168
  C        39.4236646078       17.1602662109        5.1762561505
  C        39.3985321803       17.1657800945        6.5965048157
  C        38.1792381149       17.2758867977        7.3361692319
  C        35.1696966669       26.6262020448        7.2891134277
  C        35.1885601033       26.6460921381        4.4801734388
  C        26.5737161749       17.8228509982        2.3315804598
  C        25.2600340628       17.8685074335        3.0385361142
  C        24.9973593016       18.8683853705        3.9869489592
  C        23.7789794611       18.8927456054        4.6595120621
  C        22.7942136425       17.9164589988        4.4079233438
  C        23.0512335966       16.9415246957        3.4270117752
  C        24.2702216655       16.9155017786        2.7524904379
  C        21.5306399558       17.8958049442        5.1808334368
  C        21.5550349050       17.8833577771        6.6024634989
  C        22.7734916092       17.7628340124        7.3439188986
  C        14.0469106511       17.8282756911        2.2943806656
  C        15.3515652133       17.8836725837        3.0204440373
  C        15.6088713681       18.8846879492        3.9702031051
  C        16.8180086954       18.9035658275        4.6631942846
  C        17.8045167846       17.9243522112        4.4285268544
  C        17.5519393009       16.9475809147        3.4467024694
  C        16.3421888789       16.9239960707        2.7555608144
  C        19.0741563117       17.9052401575        5.1970926307
  C        19.0736093206       17.9001604690        6.6197842036
  C        17.8669975324       17.8010933068        7.3814800866
  C        46.8069221648       17.2200087287        2.1641642246
  C        45.5189443889       17.1636971438        2.9110623952
  C        45.3123293943       16.1913876020        3.9015193110
  C        44.1315773264       16.1808661650        4.6386767450
  C        43.1293918134       17.1427256524        4.4059703379
  C        43.3333489596       18.0946191200        3.3891366128
  C        44.5147519654       18.1092336991        2.6533110476
  C        41.8768129295       17.1595433848        5.1928577233
  C        41.8817156199       17.1593616517        6.6142915833
  C        43.0898646895       17.2554388341        7.3743219092
  C        20.3206402905       17.9098695540        7.3277807762
  C        20.2982473704       17.8867285836        4.5145519631
  C        46.7852256620       17.2317978322       13.8837277949
  C        45.4821264048       17.1286589691       13.1682626326
  C        45.2632304912       16.1351769064       12.2019840300
  C        44.0752945832       16.1132298170       11.4754888433
  C        43.0770620853       17.0814556234       11.6985541619
  C        43.2858666065       18.0437826445       12.7039750483
  C        44.4750528921       18.0725143639       13.4251655787
  C        41.8318438451       17.1095046743       10.9005647626
  C        41.8587477874       17.1324143274        9.4799354566
  C        43.0788753698       17.2400501582        8.7407964534
  C        46.1534062721       26.6372584071        8.7211264125
  C        46.1623654595       26.6560092876       11.5307559173
  C        14.0461776771       17.8315018820       13.7034117098
  C        15.3681283971       17.9048647478       13.0130116366
  C        15.6428216800       18.9184377553       12.0827402423
  C        16.8724163065       18.9543254106       11.4285024695
  C        17.8557516762       17.9758445288       11.6786204342
  C        17.5880091522       16.9913940391       12.6472836966
  C        16.3603454413       16.9549346152       13.3047931868
  C        19.1235547476       17.9488649512       10.9096823218
  C        19.0993423199       17.9215775532        9.4879681879
  C        17.8795433710       17.8107799033        8.7476058812
  C        28.8003772469       14.0903083146        2.3972286915
  C        28.1835236133       12.9218290717        3.0876911548
  C        28.9138690170       12.1562412270        4.0089148972
  C        28.3093207214       11.0848745574        4.6616592690
  C        26.9626359894       10.7526911159        4.4120613917
  C        26.2530926143       11.4974060483        3.4533133042
  C        26.8541570938       12.5714415759        2.8022813129
  C        26.2933915967        9.6721391967        5.1720745267
  C        26.2871909677        9.6972009319        6.5928885101
  C        26.7951895262       10.8095365517        7.3357133046
  C        32.1843193174       21.2352064324        2.1442045225
  C        32.7808137110       22.3994966955        2.8632418655
  C        32.0420622535       23.0674648255        3.8516936424
  C        32.6169538746       24.1041676549        4.5798653817
  C        33.9470418267       24.5002374527        4.3409343795
  C        34.6684157467       23.8505257832        3.3215245702
  C        34.0957012207       22.8086186262        2.5948849533
  C        34.5799769536       25.5732493223        5.1404750912
  C        34.5790553041       25.5412577311        6.5620395289
  C        34.0773829055       24.4231070687        7.3005393797
  C        25.6803469220        8.6189579107        7.3130076166
  C        25.6552430266        8.6225826450        4.4992700855
  C        32.1089663002       21.2218604871       13.8647496208
  C        32.7040213015       22.3673136796       13.1167886638
  C        31.9775105163       23.0234184607       12.1113238920
  C        32.5629357382       24.0525141156       11.3778038133
  C        33.8886676617       24.4555246457       11.6317357744
  C        34.5983563283       23.8119753049       12.6634982695
  C        34.0178101077       22.7771140813       13.3918136381
  C        34.5326426042       25.5356832454       10.8497767467
  C        34.5540978100       25.5229122654        9.4280963022
  C        34.0645467875       24.4149439581        8.6671532011
  C        40.6223005486       17.1351439279        8.7550183989
  C        40.6004163991       17.1318049384       11.5643957080
  C        28.7411238771       14.0679907279       13.8174114563
  C        28.1335253555       12.9213323467       13.0777553503
  C        28.8677544405       12.2389635586       12.0946590440
  C        28.2878677129       11.1837084069       11.3934281455
  C        26.9604454820       10.7844712973       11.6513050999
  C        26.2452904684       11.4555141308       12.6608795738
  C        26.8221146807       12.5116728190       13.3632162366
  C        26.3178261201        9.6939145573       10.8798192304
  C        26.3000768187        9.7090916673        9.4578928882
  C        26.7976751478       10.8163415433        8.7016955667
  C        18.1353756838        3.1809899244        2.3222098587
  C        17.4061172987        4.2782357074        3.0208430535
  C        16.3905278198        3.9999070736        3.9485136696
  C        15.7428416606        5.0399081952        4.6120140343
  C        16.0946846501        6.3836326322        4.3722464291
  C        17.0839070756        6.6531132849        3.4083029209
  C        17.7329542726        5.6157618302        2.7432340164
  C        15.4703961157        7.4913558423        5.1352732781
  C        15.4856925882        7.4906604316        6.5569823382
  C        16.1872721974        6.4970793151        7.3101722975
  C        42.9459716062       31.8595260643        2.0780285677
  C        43.6463676145       30.7718965003        2.8219322858
  C        44.5920207735       31.0932152152        3.8078942160
  C        45.1977528581       30.0876693295        4.5555290068
  C        44.8712370063       28.7346097338        4.3407609525
  C        43.9453365973       28.4202682578        3.3276118224
  C        43.3364935082       29.4254025888        2.5795902147
  C        45.4887991585       27.6553024867        5.1439507531
  C        45.4930253311       27.6809943853        6.5656404323
  C        44.8060286660       28.6891057487        7.3122581353
  C        14.8566807052        8.5631301081        7.2693349181
  C        14.8750782769        8.5631040188        4.4566780631
  C        42.9464910832       31.9614903846       13.8038099258
  C        43.6917204486       30.8854141607       13.0903708815
  C        44.6564446393       31.1913291806       12.1181901433
  C        45.2779941623       30.1717542867       11.4004809005
  C        44.9540660481       28.8214359935       11.6379485765
  C        44.0204652103       28.5237519505       12.6486203228
  C        43.3921851858       29.5405058588       13.3607865083
  C        45.5631241305       27.7240454423       10.8527084778
  C        45.5334911908       27.7174440795        9.4314118793
  C        44.8272736448       28.7077360556        8.6784419811
  C        35.1584915970       26.6159443029        8.7236863550
  C        35.1381380663       26.5970315772       11.5331904858
  C        18.1485092333        3.2469571017       13.7014755834
  C        17.4298995681        4.3437781841       12.9922316373
  C        16.4147513023        4.0525184362       12.0685855996
  C        15.7664505099        5.0831678580       11.3932184160
  C        16.1210394907        6.4284096296       11.6160296321
  C        17.1122997178        6.7117584193       12.5734181082
  C        17.7599752066        5.6828476471       13.2531707989
  C        15.4905753797        7.5241220680       10.8435887757
  C        15.4965890389        7.5075359039        9.4224574765
  C        16.1934311537        6.5058779064        8.6757755865
  H        10.6722417739       12.4656241562       11.8996843283
  H        11.6944066100       10.5508039554       10.6578257402
  H        15.3916140349       11.1686127580       12.7670278349
  H        14.3511648100       13.0714548181       14.0122521057
  H        13.3758043876       11.6309982972        9.1962341589
  H        50.3229482452       22.7487993722       11.9820017645
  H        49.3197408284       24.6232442164       10.6759746505
  H        45.6419050567       24.1606348399       12.8581124027
  H        46.6628866432       22.2897232191       14.1663313510
  H        47.6297230640       23.5758313622        9.2410843284
  H        14.8718781127        8.5882025683       12.6034805500
  H        50.2872434657       22.7028452601        4.0653001149
  H        49.2692078378       24.5757216461        5.3653294818
  H        45.6104047162       24.1088674371        3.1514151316
  H        46.6525394695       22.2535299291        1.8371993874
  H        47.6077198375       23.5517793876        6.8019309609
  H        40.6607790769       17.1463652257        3.4240197238
  H        48.6868967090       14.0948470117       15.7948680480
  H        10.6812649631       12.4663769069        4.0980945270
  H        11.6894963295       10.5244682869        5.3017974143
  H        15.3937021494       11.1591204027        3.2109064079
  H        14.3651311163       13.0875432949        1.9955893496
  H        13.3755522579       11.6219922816        6.7582136761
  H        47.9302817457       14.2174130981        1.7160918288
  H        47.7798405526       14.3724264762       14.4897672279
  H        49.0840595913       18.5525625559        2.8725322098
  H        10.4158857097       14.1342952107        0.0037631414
  H        24.4853077960        3.0303271467       11.9116273282
  H        25.6267480879        4.8901097976       10.6875211238
  H        23.2551889152        7.7558182889       12.8468921945
  H        22.1313655982        5.8861846436       14.0718090128
  H        23.8077278384        5.7964912055        9.2668087119
  H        36.3836287576       32.1807170917       11.9518615570
  H        35.2683171699       30.3523996303       10.6696022632
  H        37.5284579350       27.4359587500       12.8806416167
  H        38.6243019414       29.2769485281       14.1709593118
  H        37.0435584492       29.4400120487        9.2587948867
  H        25.7507868498        8.6110967703       12.6465596654
  H        36.4563861341       32.2351200404        4.1179968215
  H        35.3493965363       30.4114642016        5.4103460074
  H        37.5326344630       27.4848493204        3.1350714470
  H        38.6143536300       29.3200561475        1.8304643492
  H        37.0599259375       29.4589758336        6.8204180661
  H        46.1093642605       26.5875112850        3.3906369768
  H        44.6683799729       35.1161887356       15.8087689818
  H        24.4297492184        3.0447015324        4.0983010644
  H        25.5536650905        4.8877402705        5.3508858215
  H        23.1516605384        7.7695260556        3.2475953102
  H        22.0393277124        5.9143500228        1.9952793450
  H        23.7775004503        5.7987580596        6.8282884362
  H        44.9543480272       34.3908986174        1.7005529667
  H        44.9023456015       34.2070543534       14.4853547981
  H        40.6660412692       33.2090190455        2.8581783538
  H        23.1504445962        1.9577129763        0.0105721040
  H        25.8206082061       19.6525719257       11.9121024861
  H        23.6489269023       19.6944504705       10.6750528340
  H        22.3595939466       16.2119680775       12.8438811457
  H        24.5349051665       16.1838741880       14.0725126271
  H        23.7253786087       17.6481660626        9.2406823581
  H        35.1366082902       15.4794006940       11.9397391961
  H        37.2691292513       15.4265065885       10.6500714924
  H        38.6939629676       18.8163667171       12.8838504092
  H        36.5572205820       18.8445596949       14.1860960486
  H        37.2278065629       17.3949836874        9.2336505739
  H        20.3635729095       17.9762578861       12.6639392959
  H        35.2502405452       15.4011595873        4.0048703246
  H        37.3769927696       15.3652118110        5.3118622758
  H        38.7049137200       18.8939665040        3.2408206326
  H        36.5675891453       18.9207262739        1.9358524896
  H        37.2483516459       17.3927745817        6.7888105935
  H        35.1548242478       26.6749440475        3.3927193475
  H        28.5007805846       21.0788705392       15.8765439667
  H        25.7605103858       19.6187432821        4.1795027771
  H        23.5746274029       19.6726775001        5.3898539260
  H        22.2992553828       16.1810225521        3.2267993541
  H        24.4846736473       16.1511311698        2.0094339468
  H        23.7039866141       17.6313816348        6.7994061012
  H        28.9958470477       21.7265874837        1.7525546011
  H        29.1978562690       21.7189273934       14.5669920495
  H        32.1541472919       18.6019480498        2.9393672857
  H        27.4101787717       19.0716118632        0.0826477275
  H        14.8508354610       19.6437392222        4.1502011730
  H        17.0133403437       19.6862877892        5.3930855617
  H        18.3027873141       16.1834468470        3.2561848820
  H        16.1359634493       16.1563864526        2.0134472592
  H        16.9243216924       17.6853319183        6.8545241333
  H        46.0936830072       15.4579357625        4.0861536468
  H        43.9698462706       15.4195590811        5.3985882362
  H        42.5665645865       18.8445688675        3.2064493312
  H        44.6904214906       18.8579687949        1.8845400359
  H        44.0317506020       17.3729040246        6.8461210482
  H        20.2919123482       17.9193205843        3.4264998381
  H        46.0395998840       15.3951323851       12.0216243865
  H        43.9080412038       15.3429163607       10.7257965916
  H        42.5196569497       18.7952106255       12.8829383489
  H        44.6582449194       18.8349378032       14.1782535551
  H        44.0124976222       17.3442952854        9.2860111340
  H        46.1991545961       26.6825157924       12.6182050424
  H        52.7410967977       21.0625953455        0.1998136698
  H        14.8827440442       19.6720686309       11.8886988416
  H        17.0837075036       19.7434564722       10.7100538653
  H        18.3380556863       16.2292805304       12.8486293069
  H        16.1388335646       16.1816411278       14.0363404130
  H        16.9462966979       17.7022536364        9.2919973849
  H        52.3223970018       21.6731539322       14.2891045716
  H        52.0130545720       21.7018544058        1.5008166124
  H        49.0673514186       18.6076490106       13.1989521163
  H        13.2475550698       19.0162869960       15.9722437268
  H        29.9558570266       12.4076176163        4.1951808187
  H        28.8761400120       10.4911108010        5.3755951111
  H        25.2124463889       11.2496423773        3.2545423830
  H        26.3052916555       13.1685561799        2.0782000704
  H        27.1569927311       11.6784977760        6.7940538795
  H        31.0217139813       22.7467122916        4.0453761109
  H        32.0392547001       24.6212785485        5.3427764033
  H        35.6978881112       24.1473350218        3.1316454781
  H        34.6580419932       22.2812541559        1.8277003959
  H        33.7241042980       23.5526653773        6.7549843772
  H        25.6813212646        8.6046738223        3.4111639074
  H        30.9561478479       22.7094282259       11.9096705738
  H        31.9925215171       24.5622866070       10.6044456712
  H        35.6250175230       24.1111973220       12.8642619921
  H        34.5711040605       22.2572826278       14.1704385603
  H        33.7026829582       23.5378967095        9.1962878649
  H        40.5915699397       17.0887139216       12.6518454465
  H        32.5242659201       14.1583113615        0.2368317157
  H        29.8946332736       12.5446863823       11.9014727079
  H        28.8654347813       10.6489005984       10.6423759410
  H        25.2183933209       11.1600489494       12.8661526219
  H        26.2669919173       13.0456436054       14.1308963747
  H        27.1599102857       11.6910420801        9.2335782105
  H        33.2913195463       14.1675114780       14.4209968674
  H        33.4063351162       14.3569093248        1.6278631328
  H        32.0399933323       18.4883147020       13.0322354607
  H        30.2331696069       14.1953394421        0.0807855550
  H        16.1184782920        2.9634139769        4.1349862522
  H        14.9534348019        4.8205520039        5.3277261664
  H        17.3662267894        7.6859891501        3.2150505357
  H        18.5148243045        5.8183870290        2.0152055755
  H        16.7538469176        5.7397530742        6.7766797724
  H        44.8284285678       32.1402777591        3.9820024384
  H        45.9377277809       30.3414228305        5.3113649954
  H        43.6826170103       27.3781962265        3.1575413258
  H        42.5998562136       29.1900312986        1.8149565714
  H        44.2307856498       29.4369559084        6.7739526891
  H        14.8512492844        8.5462926122        3.3684620828
  H        44.9001746904       32.2339899725       11.9268761397
  H        46.0250434259       30.4129781975       10.6473832695
  H        43.7634321560       27.4840214426       12.8400937961
  H        42.6456505147       29.3176805368       14.1191841523
  H        44.2688722255       29.4707040955        9.2130189341
  H        35.0916792573       26.6117996009       12.6204794968
  H        36.6050558527       35.1339276543        0.1858702545
  H        16.1436935720        3.0129446554       11.8988055042
  H        14.9741609429        4.8563290943       10.6830937601
  H        17.3956969530        7.7472329008       12.7504132129
  H        18.5427657958        5.8932975949       13.9780187208
  H        16.7648333238        5.7556248007        9.2142226110
  H        36.2781724317       34.4826704251       14.2678361876
  H        36.3805961495       34.2093336894        1.5050354112
  H        40.5806666380       33.2025697178       13.1482368257
  H        17.4707250098        1.9473023325       15.9690254994
  H        28.7926331642       18.9384806121        4.3448049692
  H        29.8695256022       19.8889907558       11.6210765283
  H        32.2376918397       16.3422289320       11.6806479688
  H        30.9030370396       15.3310162481        4.2165979163
  H        28.2880002031       17.2534721512        6.7299320337
  H        30.0814908359       14.7898575917        6.3642265648
  H        31.6079678135       20.1678332348        9.2335162390
  H        32.9038930736       17.4499913534        9.1009136071
  H        28.7751079407       16.9686792608        9.2759374908
  H        18.8532811344        0.8689487687        4.3403353341
  H        40.5278387306       35.2289555690       11.9469152739
  H        42.3244782734       34.4192959657       11.5850886161
  H        22.0878983728        0.6918362414        4.3568719919
  H        11.5968896891       18.7131512947        4.3876659026
  H        52.2648739649       18.4309300739       11.6721911095
  H        49.2551891477       16.4768222741       11.5793485602
  H        10.1501052061       15.7980948853        4.2979836385
  H        50.8499159901       17.6923676855       11.9492281230
  H        10.0461463789       17.3943588553        4.0570839580
  H        20.2146235773        0.0022486195        4.0471102549
  H        39.1835669373       36.1244315194       11.6815172383
 Ni        30.9074153081       18.0837027437       10.5803350404
 Ni        31.0280889030       16.2071424700        8.1605609947
 Ni        29.8449466175       18.9911435031        7.7431154851
 Ni        30.1416043589       17.3003901742        5.2509444440
  O        10.6499450222       14.3651189299       13.4807127186
  O        12.6131691680       14.6575561170       14.5787837358
  O        49.1481284107       16.8459109880       15.9845829181
  O        50.3502990455       20.9358339799       13.6429492070
  O        48.3485766406       20.5933934795       14.6607864106
  O        11.0516128777       17.0538782106       14.4955567999
  O        50.3210833513       20.8816566341        2.4119183937
  O        48.3467921168       20.5867927191        1.3322341291
  O        49.5438550442       18.2484412097        2.0733420884
  O        12.3590930876       18.6245451222        0.0048413053
  O        48.6932711396       14.1486111488       14.7461742343
  O         8.2099325020       14.2103644427        1.3276101022
  O        10.7354186935       14.5067345644        2.6694387836
  O        12.5718564570       14.5828346860        1.3335634204
  O        22.8447027227        2.0432905750       13.4819545011
  O        21.6057843860        3.5924569057       14.5842346987
  O        42.0582627872       34.1373942758       15.9738294527
  O        37.9818258179       33.1368862801       13.5670943562
  O        39.2184000024       31.5760641618       14.6617849087
  O        20.3083850860        1.0394050178       14.4968821756
  O        38.0245543362       33.1855050526        2.4203259492
  O        39.2196570946       31.5841506286        1.3309898604
  O        40.6523051611       33.7694060575        2.0653548442
  O        18.2553791708        1.3760869955        0.0018685365
  O        44.6221934718       35.1005622340       14.7536250805
  O        24.2053370809        0.0000638918        1.3259135186
  O        22.7528646644        2.0580824661        2.5889825055
  O        21.6240143843        3.5956969586        1.3468994034
  O        27.5002719672       18.7506941069       13.4895725491
  O        26.7675764743       16.9332342667       14.6504652275
  O        30.6664630779       19.4024449868        0.0224719953
  O        33.5493548621       16.3380269932       13.5799803010
  O        34.2767420691       18.1679864176       14.7245854756
  O        29.5758010611       17.0602928714       14.5592434404
  O        33.6147006765       16.3345937564        2.4176252054
  O        34.3030377463       18.2495417465        1.4063815279
  O        31.6521122234       18.3122687840        2.1616540619
  O        30.3262490588       15.1621569425        0.0849904470
  O        28.5544368389       21.0332556611       14.8268198189
  O        28.5146224821       20.9546874031        1.4097195623
  O        27.4622497230       18.6768781405        2.6659488900
  O        26.6958002357       16.9293694050        1.4178878228
  O        13.1494542243       18.6927612442        2.5928196636
  O        13.9196410643       16.9161707178        1.4101868900
  O        50.5962625979       19.3502482118        0.0255068976
  O        47.6839132356       16.3269944834        2.4222386448
  O        46.9528156155       18.1761396616        1.3288583548
  O        11.0699172536       17.0154449925        1.4948086716
  O        47.6754730365       16.3357527930       13.6477443424
  O        46.9276027039       18.2359345802       14.6596684780
  O        49.5686771862       18.3177245266       13.9770987179
  O        10.3186285593       15.1001539461        0.0021862161
  O        52.6707772268       21.0278593130        1.2469436399
  O        12.1468519920       20.8911072861       14.6680757097
  O        13.1089075072       18.6134897062       13.3202727978
  O        13.9576192095       16.9871062702       14.6602004708
  O        29.9893106342       14.4389936416        2.7339586546
  O        28.0887021794       14.6536755510        1.4990288018
  O        32.1369034643       16.8606952576        0.0566183886
  O        30.9673412944       20.9479331120        2.4142930935
  O        32.9471494100       20.5962561879        1.3383772140
  O        29.5723987668       17.0769468007        1.5836114135
  O        30.8742550898       20.9460524119       13.6509369523
  O        32.8771887416       20.5872396098       14.6578554043
  O        31.6745987662       18.2519729239       13.9194655343
  O        28.2970529445       18.6763961941        0.0778518277
  O        32.4906888962       14.2132004761        1.3268348544
  O        32.4063545475       14.2219183161       14.8183325516
  O        29.9118471016       14.4377877881       13.4828115186
  O        28.0365435744       14.5905744572       14.7506494826
  O        17.8892286868        1.9666290052        2.6679221198
  O        18.9562286019        3.5271297247        1.4130541157
  O        39.1686729912       34.1388224956        0.0022915459
  O        43.2802202509       33.0590097490        2.3367742281
  O        42.0345890752       31.5064326699        1.2467396819
  O        20.3177126044        1.0367827920        1.4852546603
  O        43.2760226234       33.1825245468       13.5697612008
  O        42.0052858856       31.5840930358       14.5778663933
  O        40.5789476178       33.7748669782       13.9306295145
  O        22.3672978724        1.3845497237        0.0029411566
  O        36.6727615275       35.0997903000        1.2384403334
  O        16.4455635119        0.0641546971       14.6631015815
  O        17.9364746123        2.0433523227       13.3212466357
  O        18.9190518485        3.5931440937       14.6607751137
  O        29.8259343717       18.9835135753       11.9867382256
  O        29.7351005529       18.9764159196        4.0719331569
  O        31.3304092433       16.1881504360       12.0070689235
  O        31.3426962178       16.1943046452        4.0705065838
  O        32.2349227430       16.8634200401        9.4916601097
  O        29.6068638341       17.4280446144        9.0812220445
  O        29.8719021407       15.6873109927        6.6705763149
  O        31.2963820025       17.8782879415        6.8265267279
  O        30.7564463711       19.7145132783        9.3354910850
  O        28.5605641472       18.1005770347        6.3300491890
  O        39.4567018629       35.2437258330       11.9968637656
  O        19.1412699098        0.0044929631        3.9956425285
  O        41.9695560927       35.1726723735       12.0820870917
  O        21.6912493105       -0.0693224244        3.9010063570
  O        51.3651248619       18.6142590760       12.0003503586
  O        10.7511753300       18.7472247991        3.9099787858
  O        50.0796309699       16.4128999110       12.0866589396
  O         9.5244338395       16.4830588470        3.9963360194
 Zr         9.2964202203       16.0526882390       14.1773314605
 Zr        49.8361489604       16.0065348339        1.7514886651
 Zr        22.0734015901        0.0297342322       14.1838568930
 Zr        42.4610465292       35.1533429094        1.8060211736
 Zr        29.6194219268       19.0747777275       14.2366249218
 Zr        29.5897707770       19.1883456332        1.8501419681
 Zr        11.0379281494       19.0518376788        1.8327205724
 Zr        11.0437538564       19.1547876464       14.2460103893
 Zr        31.3767605196       16.1064738279        1.8382229305
 Zr        31.3825372725       16.0067762052       14.1918490501
 Zr        18.6012692088       -0.0012658707        1.7684262748
 Zr        18.5063939074       -0.0079503622       14.2086512429
 Zr        12.3017920890       16.3235467215       15.9850880763
 Zr        48.6163586942       18.8331049226        0.0151096128
 Zr        20.3149668399        2.4732265127       15.9850830079
 Zr        40.6437490721       32.6870597029       15.9730629885
 Zr        28.3537279353       16.3434875451        0.0850752499
 Zr        32.6310238940       18.8311495529        0.0206624890
  H        32.1465487841       18.3194228929        6.6694890968
  O        30.6650317072       14.7278686678        9.8200872361
  H        30.8666760276       15.2111957755       10.6896634846
  H        29.7675003583       14.3737823728        9.9267213310
  O        33.2935877057       15.1680773116        5.8259988175
  H        34.0115195941       15.7852557158        6.0361502796
  H        32.7175448546       15.6611982006        5.1852361318
  O        27.9168361004       20.0734462330        8.0728505758
  H        27.6205616037       19.4072167267        7.3994133656
  H        27.5565377430       19.7808183843        8.9275053267
  O        30.2897443414       20.5143514663        6.2461290529
  H        30.1367243899       20.0534942633        5.3591695182
  H        29.6048895430       21.2003057668        6.3112334606
  H        32.0794067012       15.4534109469        7.5125798394
  H        32.2735150617       18.6061997061       11.2673784791
