     586
 i =      177, E =     -4847.8207209955
  C        11.8587368531       14.0535280012       13.7364095169
  C        12.4561570062       12.8905174330       13.0182105015
  C        11.7044233596       12.1715531262       12.0766073593
  C        12.2807759425       11.1093309826       11.3842657443
  C        13.6213811476       10.7395879774       11.6119157325
  C        14.3545943814       11.4432074125       12.5853179461
  C        13.7817325221       12.5082003089       13.2768174373
  C        14.2609151001        9.6489292437       10.8385205423
  C        14.2562386531        9.6568704959        9.4168286837
  C        13.7429889904       10.7589486354        8.6629239069
  C        49.1269267340       21.2332644366       13.8745545790
  C        48.5501706835       22.4011381309       13.1474012713
  C        49.3001931447       23.0685011612       12.1664323082
  C        48.7332381250       24.1076275301       11.4332363847
  C        47.4027008691       24.5092606562       11.6618908506
  C        46.6717845511       23.8604047559       12.6754377557
  C        47.2342583391       22.8155165243       13.4047779729
  C        46.7724278057       25.5869539596       10.8646472010
  C        46.7613773084       25.5573212780        9.4428865644
  C        47.2612867222       24.4422157090        8.6993865641
  C        14.8602638604        8.5705889644        8.7035622111
  C        14.8917024335        8.5969911436       11.5151710428
  C        49.1132470730       21.2034723215        2.1504011269
  C        48.5279198831       22.3648496030        2.8775812955
  C        49.2670991049       23.0254717415        3.8705970264
  C        48.6907779384       24.0600519100        4.6020363184
  C        47.3603879161       24.4568735553        4.3637590884
  C        46.6400593417       23.8120957334        3.3400997084
  C        47.2135880435       22.7761697167        2.6083409724
  C        46.7219469740       25.5318633058        5.1547511373
  C        46.7335794038       25.5281501413        6.5764527708
  C        47.2490227231       24.4289341957        7.3328325270
  C        40.6346880329       17.1338122138        7.3214311778
  C        40.6560116651       17.1687423363        4.5120198939
  C        11.8830437279       14.0865205176        2.2906291291
  C        12.4723392009       12.9107033177        2.9947940208
  C        11.7148210231       12.1774932637        3.9208943595
  C        12.2813985569       11.0950259575        4.5892890212
  C        13.6202598034       10.7213795610        4.3575587512
  C        14.3582401902       11.4369443683        3.3967538035
  C        13.7928187803       12.5181225762        2.7240738843
  C        14.2538492173        9.6246239969        5.1279665690
  C        14.2525138845        9.6445823879        6.5498017361
  C        13.7424915219       10.7534504609        7.2968844561
  C        22.5126715512        3.2446238783       13.7481915003
  C        23.2287998592        4.3497886210       13.0495961104
  C        24.2256783130        4.0693085718       12.1033572278
  C        24.8538803932        5.1085042015       11.4217411872
  C        24.5011461838        6.4506015904       11.6662615893
  C        23.5328332306        6.7226847300       12.6498571738
  C        22.8998978565        5.6852552868       13.3297888547
  C        25.1065376409        7.5567858939       10.8894348761
  C        25.0731787858        7.5508711985        9.4680690435
  C        24.3675039827        6.5525676600        8.7238979262
  C        38.3034116447       31.9283667979       13.8430195971
  C        37.5766567398       30.8368862167       13.1323385761
  C        36.6197428415       31.1372056215       12.1508804208
  C        36.0064870784       30.1145242008       11.4320747898
  C        36.3347231198       28.7659761855       11.6734241713
  C        37.2617613158       28.4731896407       12.6914597249
  C        37.8793970871       29.4945260945       13.4086731893
  C        35.7372435218       27.6713903048       10.8754692322
  C        35.7733538967       27.6844370090        9.4540888181
  C        36.4778390309       28.6881454629        8.7172715344
  C        25.6943316668        8.6206837461        8.7464341611
  C        25.7083776821        8.6303382635       11.5580057367
  C        38.3291009491       31.9622926835        2.1606831131
  C        37.6088086493       30.8875533254        2.9012595734
  C        36.6823562521       31.1931314671        3.9097880483
  C        36.0756972212       30.1720963958        4.6386585162
  C        36.3815756286       28.8206627045        4.3819095256
  C        37.2848880276       28.5251378821        3.3427582890
  C        37.8936779260       29.5425343576        2.6153381793
  C        35.7789816337       27.7185705762        5.1655253287
  C        35.7945888812       27.7086473008        6.5873529605
  C        36.4877090374       28.6999831334        7.3507022521
  C        46.1355827109       26.6207843256        7.2866036757
  C        46.0880057192       26.5802360114        4.4787112210
  C        22.4593610992        3.2555438931        2.2628974596
  C        23.1499480348        4.3648633797        2.9871421835
  C        24.1508237657        4.0803242751        3.9295624545
  C        24.7755428931        5.1116298156        4.6264498800
  C        24.4193233251        6.4566860314        4.4030240782
  C        23.4413934186        6.7345002055        3.4292673333
  C        22.8119218386        5.7034430612        2.7330407548
  C        25.0485298620        7.5556243733        5.1764878593
  C        25.0443241159        7.5493452894        6.5991935297
  C        24.3520281307        6.5527641476        7.3572869640
  C        26.6232227855       17.8605819769       13.7770730579
  C        25.3156122766       17.9042671360       13.0509756236
  C        25.0542887591       18.9021340880       12.0984645339
  C        23.8415749994       18.9213232280       11.4115432173
  C        22.8527578163       17.9460578222       11.6560596241
  C        23.1106119993       16.9709045804       12.6376677236
  C        24.3255895207       16.9462344268       13.3214933859
  C        21.5786564340       17.9310713772       10.8928293922
  C        21.5781693666       17.9061800489        9.4705081444
  C        22.7832110615       17.7782070777        8.7097665785
  C        34.4231111567       17.2277521242       13.8774224739
  C        35.7176336998       17.1726112902       13.1392759656
  C        35.9257269205       16.1993075170       12.1496615901
  C        37.1121582490       16.1789172971       11.4226444762
  C        38.1203509306       17.1317542664       11.6645386976
  C        37.9152192441       18.0852508337       12.6796882725
  C        36.7272341636       18.1094221911       13.4061169468
  C        39.3766812116       17.1371071640       10.8826240858
  C        39.3737510462       17.1476237090        9.4610473092
  C        38.1664467210       17.2568156414        8.7008335392
  C        20.3314290486       17.9242439618        8.7624052455
  C        20.3540878961       17.9359130448       11.5757027223
  C        34.4760478363       17.2465906047        2.1813200729
  C        35.7821456015       17.1660617056        2.8989219647
  C        36.0235447887       16.1419629600        3.8281599922
  C        37.2065680427       16.1282177635        4.5632663271
  C        38.1789313633       17.1301428208        4.3786061883
  C        37.9478494876       18.1249699655        3.4112922239
  C        36.7602922446       18.1482669250        2.6846464997
  C        39.4254765990       17.1479885829        5.1756715751
  C        39.3991607060       17.1504366437        6.5957838225
  C        38.1786293313       17.2533377108        7.3343764743
  C        35.1692317308       26.6263594331        7.2907759342
  C        35.1878157610       26.6490382341        4.4817330721
  C        26.5691821845       17.8212349663        2.3328364096
  C        25.2549657303       17.8708343247        3.0372942009
  C        24.9918920579       18.8735809840        3.9826440683
  C        23.7740153961       18.8985888601        4.6559763255
  C        22.7902505105       17.9206973323        4.4073600582
  C        23.0471212669       16.9436428121        3.4285678294
  C        24.2657529519       16.9164457562        2.7537386306
  C        21.5272933297       17.9005100492        5.1808828791
  C        21.5521325878       17.8886516174        6.6022992196
  C        22.7709252326       17.7693657078        7.3434905125
  C        14.0463735036       17.8284940157        2.2941693576
  C        15.3504050502       17.8845402300        3.0202105408
  C        15.6067716019       18.8863961623        3.9692990260
  C        16.8155195036       18.9060840918        4.6626341535
  C        17.8020978772       17.9268673458        4.4287640775
  C        17.5504434432       16.9492094661        3.4476750462
  C        16.3411146466       16.9248335370        2.7560586602
  C        19.0712969994       17.9087916240        5.1974395817
  C        19.0706722414       17.9040881511        6.6198918489
  C        17.8639720657       17.8047604182        7.3815770767
  C        46.8074359970       17.2199858470        2.1641717848
  C        45.5198703131       17.1632406374        2.9119252398
  C        45.3147602235       16.1905239241        3.9022292312
  C        44.1343972960       16.1786743751        4.6398985484
  C        43.1312104184       17.1394695775        4.4075127589
  C        43.3339134583       18.0922089598        3.3912733305
  C        44.5150080909       18.1081648763        2.6549601381
  C        41.8783443137       17.1533912154        5.1938537393
  C        41.8822810187       17.1523275680        6.6152418371
  C        43.0898219649       17.2514614878        7.3758717240
  C        20.3177540408       17.9143181295        7.3276454255
  C        20.2950891013       17.8905390841        4.5146529968
  C        46.7850720336       17.2318162335       13.8838584560
  C        45.4813656906       17.1285468963       13.1687826834
  C        45.2615046143       16.1341202847       12.2037423022
  C        44.0732854774       16.1120013536       11.4776209904
  C        43.0756215082       17.0810397963       11.6998146529
  C        43.2853158713       18.0443899460       12.7040394843
  C        44.4748270717       18.0732007350       13.4248466737
  C        41.8304107125       17.1083975614       10.9015651767
  C        41.8576952097       17.1283825416        9.4808885879
  C        43.0780735625       17.2371947751        8.7422923968
  C        46.1533265744       26.6371914314        8.7211522326
  C        46.1624783363       26.6560697001       11.5307904634
  C        14.0458886989       17.8316643086       13.7035734842
  C        15.3673987806       17.9057162569       13.0134265348
  C        15.6413230603       18.9200764182       12.0838222438
  C        16.8706047565       18.9566222309       11.4292986394
  C        17.8539168253       17.9779774864       11.6784941731
  C        17.5869595875       16.9927836943       12.6465562287
  C        16.3596403791       16.9556454976       13.3044613094
  C        19.1212246898       17.9517788127       10.9092307931
  C        19.0966227941       17.9249710322        9.4877582814
  C        17.8766150626       17.8141753560        8.7475677206
  C        28.8012310423       14.0900505574        2.3993149592
  C        28.1867910239       12.9197044427        3.0879774433
  C        28.9181083286       12.1548512366        4.0090789508
  C        28.3149074522       11.0821398240        4.6608277045
  C        26.9687013084       10.7482319237        4.4109598119
  C        26.2585455436       11.4920435552        3.4519450822
  C        26.8582210040       12.5670614113        2.8013996583
  C        26.2997510904        9.6677696934        5.1713266137
  C        26.2927678617        9.6934656722        6.5918798606
  C        26.8013288621       10.8058155367        7.3347530540
  C        32.1801186796       21.2375348651        2.1470344363
  C        32.7775719251       22.4025514596        2.8645295344
  C        32.0393390349       23.0712677412        3.8528648876
  C        32.6150584995       24.1078027897        4.5806873491
  C        33.9451852425       24.5034587288        4.3411210378
  C        34.6657624212       23.8534768829        3.3213904523
  C        34.0923514538       22.8114538483        2.5953869306
  C        34.5790204430       25.5757460525        5.1410008797
  C        34.5788347134       25.5421538014        6.5624343977
  C        34.0786350498       24.4224773917        7.2994759002
  C        25.6839512266        8.6163171922        7.3121268990
  C        25.6611336827        8.6184474517        4.4986286704
  C        32.1047541235       21.2212701616       13.8700212404
  C        32.7020227616       22.3629348453       13.1169339970
  C        31.9796486206       23.0077143006       12.1010738020
  C        32.5643673757       24.0375692864       11.3677154428
  C        33.8852182081       24.4515336397       11.6306347916
  C        34.5909946392       23.8168097819       12.6706159946
  C        34.0110993826       22.7822020774       13.3999300969
  C        34.5288382806       25.5331092604       10.8501731956
  C        34.5531399330       25.5207663853        9.4285061308
  C        34.0661794123       24.4126988507        8.6659628426
  C        40.6216114865       17.1269118867        8.7552725240
  C        40.5985919467       17.1326285479       11.5646712867
  C        28.7414434643       14.0673057790       13.8166204122
  C        28.1330780848       12.9221916632       13.0752641584
  C        28.8694452286       12.2346393053       12.0974535571
  C        28.2896291000       11.1791067991       11.3966323869
  C        26.9598426720       10.7847589700       11.6496466831
  C        26.2421104439       11.4611590387       12.6536323105
  C        26.8190779962       12.5175286633       13.3556195841
  C        26.3178333599        9.6934544439       10.8785615033
  C        26.3021206963        9.7074382437        9.4569800510
  C        26.8021896331       10.8136372333        8.7004525961
  C        18.1355199153        3.1810463607        2.3223269260
  C        17.4061882782        4.2782903807        3.0209062533
  C        16.3904366460        3.9999516431        3.9483940519
  C        15.7427133175        5.0399563337        4.6118571450
  C        16.0947353574        6.3836606212        4.3722517209
  C        17.0842243882        6.6531622269        3.4085943630
  C        17.7333160647        5.6158031098        2.7435642271
  C        15.4703849661        7.4913562777        5.1352794993
  C        15.4856084796        7.4906457631        6.5569913959
  C        16.1871915279        6.4970446039        7.3101561563
  C        42.9459484390       31.8595628749        2.0779665697
  C        43.6463161538       30.7719034833        2.8219711015
  C        44.5919160743       31.0932287981        3.8079604131
  C        45.1976347017       30.0876956352        4.5556379998
  C        44.8711964754       28.7346338745        4.3408077471
  C        43.9453401177       28.4202845775        3.3276231568
  C        43.3365168789       29.4254192715        2.5795808503
  C        45.4887599364       27.6553238357        5.1439970322
  C        45.4928988544       27.6809238879        6.5656856872
  C        44.8058530098       28.6889922386        7.3123149152
  C        14.8565630784        8.5630970814        7.2693438082
  C        14.8751220323        8.5631255276        4.4566747063
  C        42.9464877354       31.9615474106       13.8038680533
  C        43.6917505255       30.8854286819       13.0903905559
  C        44.6564656783       31.1913393544       12.1182155730
  C        45.2780132390       30.1717591292       11.4004867321
  C        44.9540937825       28.8214548018       11.6379966866
  C        44.0205253736       28.5237744231       12.6486936490
  C        43.3922577496       29.5405393452       13.3608584295
  C        45.5631342077       27.7240475322       10.8527514890
  C        45.5334048867       27.7173660859        9.4314556420
  C        44.8271160824       28.7076162243        8.6784989486
  C        35.1572695544       26.6148354242        8.7254185749
  C        35.1320260965       26.5953595343       11.5347771028
  C        18.1485451457        3.2469789213       13.7014305960
  C        17.4299363587        4.3437930562       12.9921534145
  C        16.4146261997        4.0525281791       12.0686849976
  C        15.7663335793        5.0831739853       11.3933051661
  C        16.1210839831        6.4283857860       11.6160047757
  C        17.1125795037        6.7117656446       12.5731303455
  C        17.7602470066        5.6828489537       13.2528855173
  C        15.4905874203        7.5240950319       10.8435793106
  C        15.4965153317        7.5075047590        9.4224455523
  C        16.1933464948        6.5058348725        8.6757627996
  H        10.6722533849       12.4655853774       11.8996866827
  H        11.6944328821       10.5507672734       10.6578339896
  H        15.3916498521       11.1686427074       12.7669719512
  H        14.3512485804       13.0714632646       14.0121791897
  H        13.3758310413       11.6310009599        9.1962405490
  H        50.3228891334       22.7484574784       11.9816556961
  H        49.3197094250       24.6229188584       10.6756663480
  H        45.6423130663       24.1612148636       12.8586460591
  H        46.6632634856       22.2902588948       14.1668673215
  H        47.6298575002       23.5758526379        9.2410738209
  H        14.8720336006        8.5882255038       12.6034772411
  H        50.2871352254       22.7025968857        4.0655358429
  H        49.2691548893       24.5754618930        5.3655833070
  H        45.6107134249       24.1094556506        3.1509434720
  H        46.6528258717       22.2541107258        1.8366713777
  H        47.6078157698       23.5518216100        6.8019361939
  H        40.6635388980       17.1413509276        3.4240949378
  H        48.6870042942       14.0949168879       15.7949207120
  H        10.6813032706       12.4664494007        4.0981745029
  H        11.6895624757       10.5245642338        5.3018927528
  H        15.3937030441       11.1591088265        3.2109018757
  H        14.3651906825       13.0874961888        1.9955688049
  H        13.3755818295       11.6220235060        6.7582495351
  H        47.9303491391       14.2175257772        1.7161090797
  H        47.7798907841       14.3727991670       14.4899250197
  H        49.0844290781       18.5528005183        2.8725787109
  H        10.4160100334       14.1342514182        0.0037281151
  H        24.4857422019        3.0305777691       11.9121011271
  H        25.6266834240        4.8905063108       10.6877800530
  H        23.2531019569        7.7558465243       12.8451990270
  H        22.1299531294        5.8862267511       14.0707104070
  H        23.8076464640        5.7959547101        9.2658622955
  H        36.3814678334       32.1796702702       11.9531548841
  H        35.2642920836       30.3514145581       10.6729079848
  H        37.5231100432       27.4349037230       12.8851558393
  H        38.6209694518       29.2759201849       14.1733613678
  H        37.0412541382       29.4389175720        9.2637083559
  H        25.7483817338        8.6124096837       12.6456484595
  H        36.4589885645       32.2366536797        4.1200720501
  H        35.3520065823       30.4139821042        5.4138931279
  H        37.5323636916       27.4856394700        3.1380307164
  H        38.6142047426       29.3199702623        1.8321562926
  H        37.0596557427       29.4594578975        6.8254186265
  H        46.1095064911       26.5876947602        3.3906822571
  H        44.6683801912       35.1162289318       15.8088157941
  H        24.4300408614        3.0425724207        4.0971320272
  H        25.5558344823        4.8846015651        5.3497418996
  H        23.1551892888        7.7685548026        3.2481293072
  H        22.0410212400        5.9145055554        1.9955314487
  H        23.7794779235        5.7969864554        6.8274514954
  H        44.9543216363       34.3908309827        1.7004919883
  H        44.9022829304       34.2070212788       14.4854698740
  H        40.6661046603       33.2091616844        2.8582109311
  H        23.1503602817        1.9578999281        0.0104774592
  H        25.8143926541       19.6594146705       11.9180561388
  H        23.6423789708       19.7021069771       10.6803725772
  H        22.3593061120       16.2089871335       12.8354272617
  H        24.5351986488       16.1796217076       14.0638995546
  H        23.7229972567       17.6547346633        9.2400876079
  H        35.1441708716       15.4680996258       11.9577403073
  H        37.2730818747       15.4154937285       10.6646220075
  H        38.6866918979       18.8286377206       12.8695646837
  H        36.5515799160       18.8581243151       14.1751105089
  H        37.2250876685       17.3701722366        9.2307119165
  H        20.3613953315       17.9785252836       12.6634722105
  H        35.2685798482       15.3706198282        3.9697174549
  H        37.3934268069       15.3340252264        5.2833215212
  H        38.6952577417       18.9019118967        3.2641607461
  H        36.5572478481       18.9331968991        1.9598881889
  H        37.2472872140       17.3623013430        6.7860536192
  H        35.1539338746       26.6791818062        3.3943158130
  H        28.5042854692       21.0689238110       15.9571448861
  H        25.7538466473       19.6258910642        4.1724286283
  H        23.5695114250       19.6800212032        5.3846580487
  H        22.2954321310       16.1822221603        3.2307951824
  H        24.4807752453       16.1500107067        2.0129729659
  H        23.7015712748       17.6394257056        6.7988923431
  H        29.0133108830       21.7136058442        1.7579395926
  H        29.1801771243       21.7272280338       14.6248943690
  H        32.1396171951       18.5872702270        2.9618498297
  H        27.3765723483       19.0243921080        0.0822080699
  H        14.8483257253       19.6452471126        4.1483062894
  H        17.0106302574       19.6892316184        5.3921158975
  H        18.3017427801       16.1852630948        3.2581981545
  H        16.1352267870       16.1567430145        2.0143554148
  H        16.9213431992       17.6888505575        6.8545861693
  H        46.0970122381       15.4578837909        4.0862784363
  H        43.9736639854       15.4170003863        5.3996536588
  H        42.5663991118       18.8415469083        3.2091786832
  H        44.6899356917       18.8573545497        1.8864559342
  H        44.0317170480       17.3706607224        6.8480653815
  H        20.2886174693       17.9225172622        3.4265839384
  H        46.0374104135       15.3934574877       12.0238995018
  H        43.9054772799       15.3409252290       10.7288313581
  H        42.5197611992       18.7966311741       12.8824139219
  H        44.6587231273       18.8364319284       14.1769520620
  H        44.0111188325       17.3437928522        9.2880416537
  H        46.1993939819       26.6826524720       12.6182325188
  H        52.7411810191       21.0626527657        0.1998025516
  H        14.8809604300       19.6736285704       11.8907202958
  H        17.0817523817       19.7461588865       10.7112654625
  H        18.3373603615       16.2307653314       12.8469392058
  H        16.1383967582       16.1818866333       14.0355900805
  H        16.9434760817       17.7054036599        9.2920828637
  H        52.3225979077       21.6732899240       14.2890899993
  H        52.0133390347       21.7021270948        1.5008115403
  H        49.0676020958       18.6076837529       13.1987942993
  H        13.2477189573       19.0163102743       15.9722251030
  H        29.9592751744       12.4087219921        4.1964337774
  H        28.8821701530       10.4888189564        5.3747794366
  H        25.2183082585       11.2428029547        3.2528346684
  H        26.3086927562       13.1634434278        2.0772186103
  H        27.1643677125       11.6740255548        6.7927478551
  H        31.0182454244       22.7522256419        4.0461773094
  H        32.0378779874       24.6251899169        5.3438086113
  H        35.6951427883       24.1501474055        3.1307501624
  H        34.6541186924       22.2838988727        1.8279325958
  H        33.7260359010       23.5523802886        6.7529354907
  H        25.6874838315        8.6001534488        3.4105235492
  H        30.9628194089       22.6833439743       11.8923607750
  H        31.9963510108       24.5401395977       10.5879135215
  H        35.6139973274       24.1237409283       12.8783085739
  H        34.5608732909       22.2710078482       14.1867533543
  H        33.7054459894       23.5344652042        9.1936406597
  H        40.5892161665       17.0937315905       12.6522745793
  H        32.5243374836       14.1538831942        0.2489374345
  H        29.8984737738       12.5359813921       11.9092970034
  H        28.8685658961       10.6399176421       10.6497656301
  H        25.2133932231       11.1693131992       12.8550183964
  H        26.2621673420       13.0553346823       14.1193216831
  H        27.1643259814       11.6883555429        9.2323816394
  H        33.2942053016       14.1780606606       14.4255909250
  H        33.4061925597       14.3646590378        1.6291705479
  H        32.0431351674       18.5052675850       13.1253804269
  H        30.2303200770       14.1911481156        0.0843514252
  H        16.1182674655        2.9634568098        4.1346927173
  H        14.9531627564        4.8206014777        5.3274136530
  H        17.3667538435        7.6860258724        3.2155599220
  H        18.5154095679        5.8184322722        2.0157587128
  H        16.7537981026        5.7397392184        6.7766544442
  H        44.8282519007       32.1403017837        3.9821009283
  H        45.9375786110       30.3414645321        5.3115027752
  H        43.6826980065       27.3782034382        3.1574999090
  H        42.5999114576       29.1900875461        1.8149124017
  H        44.2306130689       29.4368418961        6.7740051761
  H        14.8513999785        8.5463710591        3.3684512238
  H        44.9001497068       32.2340099770       11.9268690649
  H        46.0250267704       30.4129926835       10.6473503719
  H        43.7635175186       27.4840447474       12.8401845022
  H        42.6457219873       29.3177701794       14.1192584642
  H        44.2687171360       29.4705737763        9.2130967254
  H        35.0831477086       26.6103265720       12.6219616277
  H        36.6051421628       35.1339802452        0.1858334662
  H        16.1434752455        3.0129528810       11.8990254585
  H        14.9739053577        4.8563610998       10.6833254624
  H        17.3961636861        7.7472195686       12.7499659012
  H        18.5432531507        5.8932730077       13.9775234788
  H        16.7647961007        5.7556118642        9.2142142031
  H        36.2784257177       34.4825481059       14.2678815868
  H        36.3809411006       34.2092362419        1.5048908933
  H        40.5804795618       33.2026175826       13.1481992103
  H        17.4708370991        1.9476373015       15.9689192190
  H        28.8050940905       18.9889027356        4.3834426914
  H        29.7994936154       19.7607016372       11.5993753682
  H        32.2844489106       16.2115390492       11.7808336205
  H        30.8574276610       15.4001829888        4.2414040842
  H        28.3740045991       17.3083881310        6.8467580170
  H        30.1014462639       14.8516795795        6.4312830592
  H        31.6485738050       20.2064753768        9.4315068515
  H        32.8789843288       17.6029476655        9.1603951261
  H        28.8270249001       17.0662066392        9.5732716273
  H        18.8534590251        0.8689762592        4.3404002072
  H        40.5280426458       35.2289279966       11.9469016619
  H        42.3246372139       34.4194912454       11.5849069124
  H        22.0877331395        0.6920037409        4.3567401238
  H        11.5968259501       18.7131370111        4.3876861494
  H        52.2648912818       18.4310407819       11.6720447769
  H        49.2552510187       16.4766280131       11.5791752154
  H        10.1503329864       15.7981322662        4.2979206464
  H        50.8499919300       17.6924006770       11.9491353770
  H        10.0462606391       17.3944465039        4.0570647244
  H        20.2148577811        0.0022504404        4.0470444614
  H        39.1837455750       36.1244452267       11.6814219968
 Ni        31.0313886082       18.0160815196       10.7419368563
 Ni        31.0659150199       16.2364985354        8.2443087632
 Ni        29.8898756277       18.9664788173        7.9138334155
 Ni        30.1834651624       17.3731450604        5.3330488670
  O        10.6499316987       14.3650991379       13.4807393447
  O        12.6131554204       14.6575156610       14.5788023368
  O        49.1481274407       16.8459241520       15.9845557494
  O        50.3503124862       20.9357720001       13.6428789559
  O        48.3485945967       20.5933387569       14.6607374197
  O        11.0516559555       17.0538619419       14.4955575859
  O        50.3210428901       20.8816554474        2.4119338495
  O        48.3467854716       20.5867714952        1.3322087214
  O        49.5438809301       18.2484205484        2.0732980120
  O        12.3592168087       18.6246180141        0.0047614952
  O        48.6932616772       14.1486218951       14.7461780975
  O         8.2099614931       14.2103137984        1.3275743626
  O        10.7354169713       14.5067438886        2.6694043154
  O        12.5718217794       14.5828253024        1.3335729974
  O        22.8446352506        2.0432696815       13.4819903468
  O        21.6056823374        3.5923617171       14.5842540903
  O        42.0582711298       34.1374704465       15.9737728814
  O        37.9817001038       33.1364806362       13.5669711217
  O        39.2183061098       31.5759027794       14.6616540485
  O        20.3083773567        1.0394092742       14.4969195462
  O        38.0246065377       33.1856520098        2.4203103491
  O        39.2195818147       31.5841317838        1.3310298808
  O        40.6522986421       33.7694310507        2.0652961580
  O        18.2555727690        1.3765315536        0.0018305962
  O        44.6222293291       35.1005729178       14.7536460938
  O        24.2054075116        0.0000496876        1.3258899849
  O        22.7527700360        2.0577439663        2.5888485540
  O        21.6240001245        3.5955960068        1.3469538502
  O        27.4960938607       18.7520267679       13.4913787789
  O        26.7639504343       16.9309005781       14.6466165866
  O        30.6389401595       19.3518877705        0.0700053413
  O        33.5489629381       16.3388348859       13.5825910811
  O        34.2756163353       18.1682267419       14.7300795372
  O        29.5731143722       17.0574968480       14.5649377752
  O        33.6133577851       16.3332786185        2.4214493766
  O        34.3038483780       18.2477425602        1.4095240892
  O        31.6530430632       18.3119747706        2.1689299081
  O        30.3241107243       15.1579300774        0.0899025373
  O        28.5558742913       21.0280659473       14.8918351651
  O        28.5132257589       20.9526524058        1.4169315247
  O        27.4590881610       18.6747492050        2.6686880095
  O        26.6930909151       16.9270401262        1.4213435130
  O        13.1487911002       18.6929085821        2.5926070774
  O        13.9193343972       16.9161860958        1.4101016637
  O        50.5963970382       19.3502723559        0.0253990865
  O        47.6842170758       16.3268955007        2.4221948584
  O        46.9527797931       18.1760968487        1.3289211822
  O        11.0699483825       17.0155005722        1.4947541540
  O        47.6751649283       16.3358042992       13.6477087063
  O        46.9273450800       18.2360145034       14.6596232045
  O        49.5686843017       18.3176957291       13.9770604957
  O        10.3186566027       15.1001131003        0.0021669045
  O        52.6707834822       21.0278796751        1.2469276977
  O        12.1468678434       20.8911629438       14.6681004251
  O        13.1085175285       18.6135931611       13.3204318450
  O        13.9573836043       16.9870839875       14.6602637188
  O        29.9903019091       14.4400106345        2.7377660637
  O        28.0893563724       14.6524990084        1.5008727538
  O        32.1427065104       16.8530613445        0.0785087882
  O        30.9653847697       20.9487069659        2.4156598764
  O        32.9450338273       20.5988044147        1.3405467640
  O        29.5706320674       17.0721767983        1.5851399835
  O        30.8718530871       20.9458846002       13.6578935194
  O        32.8758523918       20.5857019514       14.6623337083
  O        31.6770195898       18.2521773172       13.9964570823
  O        28.2644817447       18.6320560147        0.0828256770
  O        32.4907874037       14.2128907616        1.3314006622
  O        32.4072427779       14.2188255507       14.8199939859
  O        29.9126811400       14.4372007097       13.4852569475
  O        28.0361229902       14.5892441436       14.7501090302
  O        17.8892100749        1.9666573133        2.6678832078
  O        18.9561890362        3.5271775115        1.4130402734
  O        39.1685895500       34.1388683734        0.0022489803
  O        43.2802055778       33.0589714887        2.3368325206
  O        42.0345574757       31.5064228750        1.2467410944
  O        20.3177255573        1.0368270611        1.4851882101
  O        43.2760313482       33.1825079493       13.5697699513
  O        42.0052857289       31.5840707967       14.5778670449
  O        40.5789812133       33.7749567563       13.9305793370
  O        22.3673211796        1.3845983088        0.0029323771
  O        36.6727834052       35.0998287466        1.2384091111
  O        16.4456186188        0.0641735863       14.6631068011
  O        17.9365011067        2.0433209983       13.3212707482
  O        18.9190280167        3.5931277121       14.6607630903
  O        29.8592519364       18.9073033749       12.0713562669
  O        29.7385612976       18.9778223248        4.0852264198
  O        31.3475945325       16.1984036205       12.0573141145
  O        31.3022705519       16.2575636097        4.0771304644
  O        32.2491821550       16.9979913893        9.5840022934
  O        29.6884818227       17.4335725996        9.3190100341
  O        29.9091973807       15.7491188628        6.7490995899
  O        31.3155532927       17.8963563153        6.9183274930
  O        30.8304778070       19.7025582705        9.5664280595
  O        28.6693681851       18.1690099834        6.4930812791
  O        39.4568225425       35.2437285585       11.9968409559
  O        19.1414008219        0.0045343585        3.9956221772
  O        41.9695622581       35.1726976564       12.0820593447
  O        21.6912247529       -0.0693257340        3.9010066972
  O        51.3651406406       18.6142387411       12.0002932196
  O        10.7511112952       18.7472051035        3.9099939235
  O        50.0795654663       16.4128247281       12.0866468910
  O         9.5245680803       16.4830402311        3.9963138654
 Zr         9.2968848405       16.0526790959       14.1773342456
 Zr        49.8366850938       16.0064694326        1.7514263421
 Zr        22.0735065896        0.0300980197       14.1837910829
 Zr        42.4611189690       35.1535962407        1.8060137818
 Zr        29.6025139391       19.0802978993       14.2517145205
 Zr        29.5735175250       19.1687252389        1.8749996682
 Zr        11.0381810957       19.0519070049        1.8327630044
 Zr        11.0441450605       19.1547639378       14.2458239104
 Zr        31.3680821160       16.1072775343        1.8555829844
 Zr        31.3780687925       16.0055729092       14.2412728483
 Zr        18.6013766929       -0.0009656388        1.7684200827
 Zr        18.5065213989       -0.0077954019       14.2086136283
 Zr        12.3021786292       16.3234694892       15.9850880764
 Zr        48.6169467347       18.8332277350        0.0150387932
 Zr        20.3152341750        2.4736210573       15.9850734192
 Zr        40.6437787979       32.6873656545       15.9729864601
 Zr        28.3454765084       16.3399971932        0.0834235388
 Zr        32.6202482816       18.8342058387        0.0437707644
  H        32.1764633694       18.3251295652        6.7865505652
  O        30.7516874028       14.7275227740        9.8234939555
  H        30.8888405844       15.2059519810       10.7032692848
  H        29.8502410096       14.3693142096        9.8677118141
  O        33.2915652411       15.1698761168        5.8254369417
  H        34.0723627170       15.7344057623        5.9382528679
  H        32.7154784947       15.6690897284        5.1923667995
  O        27.8834694789       20.1426785222        8.1554503939
  H        27.6824851800       19.4477433946        7.4747347836
  H        27.4408987580       19.8620250143        8.9737544556
  O        30.3288160955       20.5783449668        6.4904479323
  H        30.1882999162       20.1625420269        5.5955996089
  H        29.5958862635       21.2082541449        6.6016206821
  H        32.1124650142       15.5269361360        7.5551156342
  H        32.1640890423       18.5814383149       11.4331404485
