     586
 i =       93, E =     -4847.8608936642
  C        11.8597650593       14.0524015481       13.7363232396
  C        12.4575840711       12.8905700974       13.0162836995
  C        11.7049585641       12.1706752103       12.0761791493
  C        12.2808390588       11.1080327432       11.3841188337
  C        13.6217640562       10.7389735489       11.6107285826
  C        14.3561098950       11.4437987601       12.5823323786
  C        13.7836219287       12.5091314225       13.2735749347
  C        14.2605541658        9.6477138811       10.8377292734
  C        14.2547279335        9.6548392237        9.4160870953
  C        13.7408961755       10.7566340161        8.6621916444
  C        49.1165481348       21.2046050977       13.8419075432
  C        48.5431547643       22.3794185652       13.1228320283
  C        49.2904756096       23.0443344673       12.1383899604
  C        48.7266842074       24.0925272490       11.4158782645
  C        47.4009223008       24.5034417727       11.6562984642
  C        46.6737013429       23.8575178660       12.6742753078
  C        47.2341449483       22.8057725480       13.3953612886
  C        46.7709209785       25.5837458597       10.8625464376
  C        46.7565541457       25.5536253765        9.4407319766
  C        47.2512756697       24.4365762687        8.6965966384
  C        14.8581441345        8.5681969318        8.7029335924
  C        14.8917876286        8.5961819727       11.5144913211
  C        49.1133928074       21.2031556703        2.1495351596
  C        48.5275878000       22.3643958765        2.8769287851
  C        49.2651165425       23.0237434997        3.8719775114
  C        48.6878260675       24.0580352796        4.6031545885
  C        47.3582565605       24.4560737586        4.3622354185
  C        46.6396011752       23.8124597049        3.3367242524
  C        47.2140256604       22.7766877981        2.6054097874
  C        46.7190535585       25.5308474619        5.1529777291
  C        46.7286072780       25.5258646427        6.5746170839
  C        47.2394200202       24.4240972467        7.3301700665
  C        40.6355927450       17.1640989017        7.3261028509
  C        40.6538787615       17.1773574147        4.5172838266
  C        11.8823864229       14.0850460711        2.2916823149
  C        12.4705906006       12.9085183222        2.9952469599
  C        11.7122721262       12.1755232638        3.9208396334
  C        12.2780103725       11.0924281814        4.5888865140
  C        13.6166522188       10.7181215641        4.3571047692
  C        14.3553400346       11.4333814831        3.3966646459
  C        13.7907713281       12.5151524204        2.7243376658
  C        14.2498821391        9.6212507475        5.1274500759
  C        14.2490338203        9.6414538847        6.5492477270
  C        13.7394090608       10.7505928260        7.2961686514
  C        22.5123338493        3.2444486737       13.7483003342
  C        23.2277352573        4.3496288074       13.0497531778
  C        24.2251847385        4.0694980295       12.1040668949
  C        24.8523564226        5.1090037798       11.4221654956
  C        24.4978176381        6.4507405511       11.6659367562
  C        23.5290113251        6.7224833954       12.6490936637
  C        22.8971499172        5.6847836694       13.3293576173
  C        25.1023662215        7.5570476790       10.8891771479
  C        25.0716515330        7.5495455006        9.4677832998
  C        24.3685466445        6.5497308594        8.7231704354
  C        38.3046815424       31.9285740265       13.8424172292
  C        37.5802080033       30.8367239015       13.1295908528
  C        36.6203481694       31.1370130438       12.1511565717
  C        36.0081720940       30.1144033334       11.4314785663
  C        36.3409839395       28.7662988668       11.6688330697
  C        37.2721592559       28.4733110102       12.6828743017
  C        37.8883404250       29.4946943461       13.4012679440
  C        35.7407881480       27.6731261569       10.8713839348
  C        35.7667805767       27.6910671976        9.4499087546
  C        36.4710893532       28.6943379633        8.7122399655
  C        25.6920189543        8.6198615494        8.7463090074
  C        25.7005576491        8.6323905648       11.5582996091
  C        38.3287646083       31.9629935932        2.1596994145
  C        37.6062215629       30.8890625093        2.8993973845
  C        36.6775558809       31.1969438049        3.9050542508
  C        36.0678495751       30.1773657097        4.6331616798
  C        36.3732045039       28.8256209009        4.3782012311
  C        37.2790112083       28.5275861992        3.3421153306
  C        37.8908131326       29.5437033522        2.6153857172
  C        35.7668851370       27.7258690700        5.1618076282
  C        35.7804684050       27.7177297532        6.5834319170
  C        36.4774478955       28.7070906977        7.3458129238
  C        46.1324952534       26.6191612199        7.2852997494
  C        46.0868663213       26.5804360848        4.4773069044
  C        22.4597448268        3.2554276756        2.2627448687
  C        23.1512785576        4.3642190506        2.9865434835
  C        24.1527544287        4.0788223544        3.9280956358
  C        24.7783426121        5.1095624791        4.6249668539
  C        24.4222794727        6.4547618222        4.4024066155
  C        23.4438665557        6.7334536254        3.4294043114
  C        22.8135708898        5.7029848679        2.7331098118
  C        25.0514391325        7.5533778846        5.1762852258
  C        25.0460288736        7.5471092025        6.5989203520
  C        24.3546757149        6.5495863934        7.3565691127
  C        26.6116469789       17.8536782168       13.7842963581
  C        25.3042597223       17.9037776344       13.0619405239
  C        25.0564320796       18.8907358134       12.0948769528
  C        23.8456918174       18.9113857325       11.4054602141
  C        22.8479981127       17.9485553771       11.6602603343
  C        23.0933364482       16.9842379878       12.6561358711
  C        24.3056699167       16.9577112845       13.3433381284
  C        21.5765524565       17.9342547951       10.8939691872
  C        21.5774244415       17.9078196526        9.4714980001
  C        22.7828482057       17.7737330976        8.7119577709
  C        34.4251532989       17.2276899786       13.8804204250
  C        35.7204970945       17.1775326816       13.1437026994
  C        35.9248170431       16.2227390552       12.1358118819
  C        37.1113473283       16.2103633928       11.4090951394
  C        38.1247328090       17.1525191889       11.6704135264
  C        37.9242724616       18.0862226599       12.7048679812
  C        36.7353026834       18.1032306418       13.4296253451
  C        39.3807425046       17.1645853381       10.8887495074
  C        39.3773801770       17.1875510757        9.4673418378
  C        38.1714573660       17.3196794843        8.7095328345
  C        20.3308488465       17.9294497769        8.7627463261
  C        20.3513197225       17.9413877921       11.5756310655
  C        34.4761704607       17.2469291297        2.1848072854
  C        35.7780762064       17.1751007989        2.9095258630
  C        35.9835681232       16.2081407197        3.9053508432
  C        37.1684226302       16.1960711960        4.6360487072
  C        38.1761866979       17.1481237593        4.3873021718
  C        37.9768354628       18.0883971254        3.3592815143
  C        36.7891683443       18.1075619997        2.6335990967
  C        39.4229322691       17.1720975859        5.1818721330
  C        39.3990882811       17.1917444202        6.6025517860
  C        38.1819873827       17.3192508910        7.3431573286
  C        35.1502942353       26.6385586830        7.2871137979
  C        35.1755688679       26.6562724080        4.4784697641
  C        26.5685954765       17.8203510437        2.3329092536
  C        25.2546526809       17.8688694668        3.0381703134
  C        24.9936000260       18.8692658521        3.9863826167
  C        23.7759074017       18.8945318465        4.6597286173
  C        22.7905416416       17.9188898394        4.4088276509
  C        23.0458908520       16.9436074472        3.4279395459
  C        24.2643025906       16.9164066717        2.7526312789
  C        21.5276330932       17.9004337525        5.1820058991
  C        21.5521697135       17.8889582057        6.6034782349
  C        22.7700932031       17.7648865894        7.3454958917
  C        14.0469941868       17.8297222871        2.2943774147
  C        15.3512474607       17.8876602333        3.0195163785
  C        15.6072802264       18.8903903842        3.9677710174
  C        16.8161310721       18.9111765888        4.6608389322
  C        17.8030633764       17.9320615533        4.4278563418
  C        17.5518262427       16.9538100274        3.4472246011
  C        16.3425108585       16.9284241278        2.7557210805
  C        19.0718058381       17.9138229973        5.1970883825
  C        19.0706472248       17.9107708978        6.6195484028
  C        17.8633678218       17.8148694974        7.3806059619
  C        46.8065807104       17.2200077727        2.1644851041
  C        45.5185791319       17.1634331392        2.9118083138
  C        45.3127203963       16.1922999290        3.9037213157
  C        44.1323587238       16.1820260131        4.6418056055
  C        43.1292008370       17.1428623487        4.4088389425
  C        43.3322673168       18.0930808563        3.3900975559
  C        44.5132177220       18.1076020854        2.6533923377
  C        41.8770711148       17.1628560299        5.1971253802
  C        41.8827371121       17.1689752655        6.6186691343
  C        43.0915684202       17.2602251739        7.3779829453
  C        20.3174638438       17.9187922728        7.3280064209
  C        20.2958627181       17.8925791167        4.5150321597
  C        46.7867150787       17.2311374907       13.8841712105
  C        45.4832880069       17.1298651140       13.1703161592
  C        45.2623398383       16.1375319638       12.2034889707
  C        44.0740846302       16.1186661582       11.4776942866
  C        43.0783852206       17.0890390569       11.7023507811
  C        43.2888838666       18.0494739088       12.7091198807
  C        44.4782070263       18.0750707119       13.4296302992
  C        41.8337699667       17.1226741707       10.9046904763
  C        41.8607166977       17.1466758028        9.4841778895
  C        43.0811322331       17.2468890236        8.7445167957
  C        46.1506024262       26.6350971386        8.7198555589
  C        46.1637201003       26.6540198284       11.5295474980
  C        14.0465346685       17.8307192840       13.7041974746
  C        15.3671189244       17.9067706603       13.0135470292
  C        15.6390742954       18.9225459566       12.0849253678
  C        16.8678957007       18.9612675327       11.4298877550
  C        17.8521857704       17.9833647648       11.6776705363
  C        17.5871065222       16.9967479900       12.6448090751
  C        16.3603868784       16.9575157772       13.3033818097
  C        19.1191934454       17.9585796817       10.9085464016
  C        19.0954370437       17.9329408551        9.4871642681
  C        17.8755511269       17.8247841162        8.7465607940
  C        28.8039933751       14.0857120734        2.3934431090
  C        28.1869470847       12.9150382292        3.0815286274
  C        28.9097969411       12.1712183704        4.0257661943
  C        28.3080405751       11.0983580119        4.6781273793
  C        26.9699961781       10.7460201756        4.4095624314
  C        26.2687842186       11.4700194205        3.4289060737
  C        26.8683131637       12.5434454579        2.7750341731
  C        26.3008006135        9.6671482932        5.1712861436
  C        26.2904744047        9.6937725599        6.5921111327
  C        26.7941251108       10.8077522044        7.3363367925
  C        32.1794737628       21.2366719643        2.1460503858
  C        32.7749738343       22.4049586590        2.8625354111
  C        32.0251743307       23.0895832558        3.8306866368
  C        32.5955798734       24.1293762883        4.5579451561
  C        33.9326826160       24.5114689476        4.3377039726
  C        34.6662537145       23.8455135064        3.3380977632
  C        34.0971645344       22.8006038344        2.6124070365
  C        34.5615110018       25.5864530924        5.1380197955
  C        34.5543763927       25.5569838792        6.5593142832
  C        34.0418142087       24.4427795952        7.2968535427
  C        25.6834409454        8.6152715808        7.3119811452
  C        25.6644076691        8.6160005234        4.4989038574
  C        32.1120683456       21.2221476647       13.8716881942
  C        32.7095573815       22.3634269561       13.1152717016
  C        31.9624871032       23.0603796868       12.1526543538
  C        32.5462828240       24.0878814398       11.4149106047
  C        33.8906265470       24.4523414324       11.6261780528
  C        34.6224844191       23.7685534593       12.6148680450
  C        34.0434981598       22.7331851281       13.3447129168
  C        34.5289801674       25.5381393892       10.8463099730
  C        34.5361652417       25.5339399381        9.4252568993
  C        34.0318894002       24.4331244240        8.6634712640
  C        40.6241165073       17.1572584617        8.7599262014
  C        40.6030403492       17.1490454462       11.5694737496
  C        28.7397250925       14.0674087427       13.8166939780
  C        28.1271815729       12.9241129487       13.0740637950
  C        28.8696004374       12.2181777797       12.1145289928
  C        28.2885947252       11.1641412599       11.4124407316
  C        26.9505196061       10.7881920875       11.6487932747
  C        26.2255306693       11.4822842691       12.6347577957
  C        26.8042272011       12.5383389230       13.3363493475
  C        26.3095928960        9.6951585500       10.8787162145
  C        26.2966498464        9.7077254189        9.4575032597
  C        26.7947456036       10.8154780597        8.7020642260
  C        18.1352153420        3.1808996385        2.3220573810
  C        17.4051528768        4.2774847029        3.0203381848
  C        16.3894661124        3.9981130550        3.9475993149
  C        15.7408767576        5.0374451712        4.6111046533
  C        16.0919242335        6.3813996049        4.3716307379
  C        17.0811849794        6.6519273105        3.4080355380
  C        17.7311882079        5.6152339252        2.7429538838
  C        15.4668849496        7.4884410862        5.1347589857
  C        15.4824501423        7.4877243608        6.5564322546
  C        16.1845720176        6.4944439748        7.3095176637
  C        42.9459896291       31.8597310884        2.0778604580
  C        43.6463256978       30.7722190659        2.8215738847
  C        44.5917182790       31.0935837813        3.8077569310
  C        45.1973376210       30.0879881620        4.5553457434
  C        44.8708956775       28.7349943303        4.3402046176
  C        43.9453214539       28.4206514009        3.3267644728
  C        43.3366307096       29.4257921277        2.5787660292
  C        45.4879504685       27.6554124175        5.1431466923
  C        45.4917164573       27.6806260952        6.5648398075
  C        44.8061532224       28.6892873610        7.3120914761
  C        14.8535144927        8.5602009332        7.2687719731
  C        14.8711664938        8.5598643363        4.4561265355
  C        42.9469504520       31.9611393028       13.8037180765
  C        43.6926563467       30.8848581758       13.0906209712
  C        44.6570853282       31.1904855376       12.1179637213
  C        45.2788954549       30.1708085380       11.4004612355
  C        44.9558389074       28.8202741841       11.6383051990
  C        44.0228310096       28.5229371780       12.6497377509
  C        43.3942853947       29.5397709166       13.3617517778
  C        45.5641531096       27.7226116303       10.8523760775
  C        45.5330437155       27.7161717220        9.4309535584
  C        44.8278848210       28.7075219561        8.6783305260
  C        35.1423338112       26.6261325015        8.7215433318
  C        35.1420563358       26.5936002837       11.5314421393
  C        18.1485426447        3.2469857726       13.7014367329
  C        17.4299040474        4.3435074681       12.9921298929
  C        16.4146175011        4.0518766400       12.0687408203
  C        15.7661798962        5.0822613055       11.3932038472
  C        16.1208525993        6.4275700182       11.6155213975
  C        17.1123009635        6.7113135124       12.5726059232
  C        17.7600903588        5.6826520336       13.2525858185
  C        15.4900375700        7.5228953068       10.8429767330
  C        15.4949395684        7.5054904644        9.4218649970
  C        16.1914309007        6.5036385694        8.6751239179
  H        10.6724257086       12.4641493261       11.9004257441
  H        11.6938643716       10.5485569900       10.6588967910
  H        15.3935184801       11.1698269569       12.7628537219
  H        14.3536277133       13.0732196152       14.0079227545
  H        13.3741665609       11.6288839112        9.1954845893
  H        50.3083000949       22.7152393171       11.9427865397
  H        49.3113318215       24.6066123684       10.6561075311
  H        45.6480619277       24.1653778005       12.8670382965
  H        46.6661408934       22.2833685687       14.1616116460
  H        47.6155069981       23.5680526502        9.2376187132
  H        14.8729838760        8.5880941959       12.6028168516
  H        50.2844987032       22.6999578013        4.0688584304
  H        49.2647926823       24.5722309151        5.3685872546
  H        45.6107897202       24.1104786254        3.1456636788
  H        46.6545020345       22.2553814582        1.8323306012
  H        47.5946203477       23.5458496450        6.7987187995
  H        40.6603086613       17.1363518708        3.4297785808
  H        48.6863652419       14.0947662636       15.7956207003
  H        10.6789667466       12.4652926849        4.0981131013
  H        11.6857858647       10.5221151167        5.3012876766
  H        15.3906627437       11.1549459352        3.2109669533
  H        14.3636003484       13.0844780553        1.9961697526
  H        13.3721695240       11.6189734181        6.7574483511
  H        47.9301214733       14.2178377814        1.7162433711
  H        47.7803938580       14.3755493268       14.4898023338
  H        49.0849354725       18.5539915369        2.8712647969
  H        10.4114968619       14.1310768464        0.0089414969
  H        24.4863623101        3.0309248935       11.9135049622
  H        25.6257330239        4.8916654331       10.6886278418
  H        23.2481398856        7.7554635320       12.8437013016
  H        22.1267537216        5.8851659462       14.0699406824
  H        23.8090780569        5.7925126150        9.2646472695
  H        36.3786723402       32.1793432900       11.9568771198
  H        35.2631246002       30.3509591486       10.6750202247
  H        37.5375836255       27.4353847068       12.8729516278
  H        38.6327584342       29.2765751165       14.1633324643
  H        37.0384328097       29.4426422207        9.2579647199
  H        25.7377323460        8.6162202681       12.6460569543
  H        36.4551294846       32.2409979718        4.1135995409
  H        35.3424477558       30.4205867426        5.4063695639
  H        37.5260239930       27.4875977790        3.1393065153
  H        38.6133584859       29.3199089380        1.8343990381
  H        37.0507233710       29.4648824486        6.8195569914
  H        46.1092599386       26.5888728772        3.3892985639
  H        44.6684772804       35.1162486325       15.8087544435
  H        24.4316530675        3.0408832166        4.0950133995
  H        25.5590102611        4.8820030219        5.3476836801
  H        23.1579809720        7.7677219604        3.2490105838
  H        22.0422651110        5.9146667566        1.9962102404
  H        23.7837999110        5.7928475243        6.8263040755
  H        44.9544522930       34.3908174219        1.7004271532
  H        44.9024137585       34.2070223988       14.4853791660
  H        40.6666745508       33.2094107632        2.8582526094
  H        23.1504363117        1.9579681426        0.0104505195
  H        25.8258789372       19.6342062958       11.8979992370
  H        23.6570924835       19.6825423194       10.6616634366
  H        22.3348571974       16.2314328893       12.8610008419
  H        24.5072355639       16.1986466243       14.0956294950
  H        23.7226909961       17.6437007472        9.2414352620
  H        35.1397319571       15.4998992308       11.9281847412
  H        37.2672400279       15.4627645182       10.6345090829
  H        38.7000166824       18.8208503809       12.9108206947
  H        36.5629456690       18.8375064391       14.2131257446
  H        37.2318436130       17.4472469837        9.2392721087
  H        20.3579384616       17.9844602601       12.6633702900
  H        35.1988278993       15.4806712478        4.1025785416
  H        37.3254248375       15.4440598113        5.4062648303
  H        38.7497172691       18.8287851967        3.1634640101
  H        36.6118566342       18.8513051426        1.8603210805
  H        37.2505444732       17.4455964037        6.7991207133
  H        35.1468777272       26.6827933601        3.3908305896
  H        28.5039082309       21.0702956514       15.9723783450
  H        25.7583694454       19.6181381134        4.1780932118
  H        23.5717385710       19.6739498314        5.3906055775
  H        22.2930388028       16.1837241121        3.2286513117
  H        24.4785047946       16.1515055346        2.0100099700
  H        23.7003377438       17.6295844759        6.8015264434
  H        29.0274735200       21.7071711752        1.7523505401
  H        29.1770522846       21.7274659154       14.6305939145
  H        32.1223409900       18.5564104107        2.9821261573
  H        27.3711412883       19.0209909737        0.0877366271
  H        14.8484033950       19.6488963169        4.1464131832
  H        17.0109508787       19.6948925522        5.3897791200
  H        18.3034222772       16.1900170655        3.2583232643
  H        16.1369415606       16.1597706031        2.0145278251
  H        16.9206963120       17.7005535919        6.8533849641
  H        46.0945634509       15.4595285696        4.0890775661
  H        43.9719240939       15.4215846413        5.4028694558
  H        42.5648671998       18.8422340336        3.2067496056
  H        44.6876460215       18.8554719968        1.8834868809
  H        44.0339526470       17.3713439035        6.8492849563
  H        20.2901533475       17.9237791117        3.4269389670
  H        46.0374627233       15.3964332134       12.0221254627
  H        43.9045581460       15.3496276654       10.7272293354
  H        42.5239828698       18.8019777060       12.8890287347
  H        44.6635380648       18.8360622916       14.1835874595
  H        44.0155969915       17.3464591352        9.2891107266
  H        46.2026331564       26.6807606931       12.6169325991
  H        52.7357417308       21.0628548946        0.1988616320
  H        14.8775530980       19.6752470402       11.8931218758
  H        17.0780151658       19.7517808311       10.7126424188
  H        18.3386750693       16.2355068241       12.8437067304
  H        16.1402327625       16.1829088863       14.0339307387
  H        16.9419620541       17.7180085398        9.2906823103
  H        52.3238468892       21.6694903909       14.2741774469
  H        52.0120331486       21.6999753818        1.5023430534
  H        49.0845440386       18.5966718491       13.1915209284
  H        13.2468532142       19.0137364501       15.9695099016
  H        29.9410482006       12.4475273240        4.2337966213
  H        28.8696698846       10.5194462237        5.4081444746
  H        25.2348982730       11.2070607973        3.2147948168
  H        26.3257439476       13.1244146795        2.0332554796
  H        27.1530151167       11.6769934531        6.7934698466
  H        30.9989081414       22.7783109789        4.0072205045
  H        32.0097423901       24.6610351829        5.3045501092
  H        35.7014039866       24.1317954961        3.1635072010
  H        34.6679068265       22.2598167275        1.8608876033
  H        33.6806908072       23.5771817872        6.7484567380
  H        25.6930025973        8.5965818941        3.4108790913
  H        30.9212952597       22.7863524269       11.9982698809
  H        31.9609327153       24.6327130242       10.6771450569
  H        35.6630746789       24.0389357426       12.7822434394
  H        34.6118022436       22.1836601043       14.0916514599
  H        33.6655721069       23.5593476071        9.1949793478
  H        40.5949466860       17.1021380863       12.6567631613
  H        32.5211277065       14.1500410946        0.2602012437
  H        29.9069423646       12.5033212026       11.9489656982
  H        28.8711082643       10.6094216396       10.6797616998
  H        25.1904449109       11.2042718067       12.8225906929
  H        26.2420610136       13.0901758221       14.0860663094
  H        27.1516359886       11.6911646742        9.2362792401
  H        33.2998241442       14.1844463256       14.4317661229
  H        33.4082881148       14.3963454746        1.6186044507
  H        32.0660658772       18.4830643487       13.1225025533
  H        30.2208793574       14.1883771631        0.0811874996
  H        16.1182201877        2.9613593650        4.1337219036
  H        14.9514667841        4.8175181171        5.3266338535
  H        17.3628108163        7.6850744348        3.2152117490
  H        18.5132062527        5.8185633836        2.0152761299
  H        16.7511666697        5.7371655018        6.7759797361
  H        44.8279476404       32.1406574704        3.9820336990
  H        45.9372085661       30.3415741995        5.3113375611
  H        43.6829474536       27.3785354004        3.1564601094
  H        42.6003041880       29.1905777256        1.8138011729
  H        44.2318300469       29.4381919940        6.7742702335
  H        14.8473601089        8.5431024361        3.3679116000
  H        44.9003920332       32.2331249138       11.9259399154
  H        46.0255521113       30.4122807245       10.6470485705
  H        43.7664115916       27.4831982139       12.8420146662
  H        42.6483218934       29.3167008141       14.1206502159
  H        44.2707369881       29.4712298632        9.2131539032
  H        35.1060752909       26.6009506712       12.6192210486
  H        36.6052885863       35.1341261761        0.1857628720
  H        16.1435898416        3.0122385981       11.8993629912
  H        14.9737279989        4.8552859452       10.6833085073
  H        17.3957675385        7.7468554308       12.7491303554
  H        18.5430752104        5.8933821272       13.9771470940
  H        16.7633998667        5.7537402095        9.2134668811
  H        36.2786986954       34.4824189287       14.2678574429
  H        36.3816725695       34.2089428311        1.5044981653
  H        40.5815316214       33.2031090778       13.1478477617
  H        17.4710292818        1.9481033150       15.9689249037
  H        28.8047318283       18.9897792387        4.3896407443
  H        30.2134365115       19.9174729198       11.9280468811
  H        32.2981969585       16.0774259303       11.7373179805
  H        31.0852341912       15.3988890932        4.3765448656
  H        28.1703703212       17.3664220417        6.8504350839
  H        29.4212692057       15.1523917805        6.6967947543
  H        31.3229364682       20.8666369760        9.0271393700
  H        32.6865415182       17.9335835067        9.3593488028
  H        27.9744039874       17.5437938283       11.1597385781
  H        18.8537268224        0.8691352874        4.3402305461
  H        40.5280186359       35.2288553651       11.9467887007
  H        42.3252546593       34.4200469073       11.5844987198
  H        22.0875680563        0.6918759779        4.3569778413
  H        11.5974785991       18.7129581599        4.3859532771
  H        52.2647594922       18.4262367116       11.6672078773
  H        49.2539515731       16.4731525964       11.5810007078
  H        10.1501836302       15.7985003249        4.2986081892
  H        50.8498630731       17.6881559346       11.9454321504
  H        10.0463590108       17.3946482959        4.0567588980
  H        20.2151290653        0.0022110312        4.0470040453
  H        39.1838434321       36.1247094602       11.6817995528
 Ni        30.9872325326       17.8922176133       11.0756617936
 Ni        31.1475667207       16.4858712446        8.0813606383
 Ni        29.9729817736       18.8582169440        7.7453381819
 Ni        30.1044150934       17.2789661338        5.3266912274
  O        10.6505418887       14.3630306342       13.4810544751
  O        12.6141581232       14.6550564278       14.5792739446
  O        49.1493276390       16.8451942261       15.9844305448
  O        50.3227639076       20.8748839890       13.5702150531
  O        48.3493240440       20.5924026693       14.6607750209
  O        11.0713591963       17.0224859326       14.4892295641
  O        50.3214551136       20.8816112157        2.4107624084
  O        48.3468515484       20.5864296586        1.3318104046
  O        49.5443205794       18.2486591311        2.0723102812
  O        12.3584096549       18.6221486718        0.0041423214
  O        48.6930206948       14.1482749071       14.7464418995
  O         8.2096827219       14.2101484466        1.3275060564
  O        10.7353588047       14.5063325754        2.6698410796
  O        12.5721162409       14.5813260082        1.3349856300
  O        22.8445783910        2.0431296501       13.4821098681
  O        21.6054502269        3.5921728287       14.5845000920
  O        42.0584459665       34.1375514702       15.9737452751
  O        37.9817416550       33.1363141928       13.5669147054
  O        39.2185029347       31.5758505101       14.6617789366
  O        20.3084454245        1.0394150550       14.4969580409
  O        38.0247321148       33.1860875436        2.4201221461
  O        39.2195542985       31.5840657302        1.3310441047
  O        40.6523681498       33.7694729900        2.0652247133
  O        18.2555566442        1.3767177626        0.0018025103
  O        44.6222166612       35.1005330449       14.7536025849
  O        24.2054604011        0.0000285634        1.3258515043
  O        22.7528134008        2.0575029752        2.5887499570
  O        21.6240769916        3.5955924805        1.3470686824
  O        27.4925847429       18.7378334503       13.4866751692
  O        26.7584003136       16.9272427057       14.6521994108
  O        30.6394333707       19.3524254339        0.0754209659
  O        33.5524708592       16.3379987352       13.5861564036
  O        34.2748924208       18.1698464273       14.7314762414
  O        29.5702988615       17.0531344987       14.5608792177
  O        33.6185346895       16.3307430687        2.4183493577
  O        34.3043290430       18.2481061711        1.4097423506
  O        31.6518874091       18.3108763034        2.1694405692
  O        30.3221253514       15.1542415602        0.0904631259
  O        28.5538576341       21.0288892004       14.8999488638
  O        28.5137743049       20.9527669463        1.4170125521
  O        27.4572313375       18.6748402900        2.6685325219
  O        26.6922797172       16.9266357794        1.4215748493
  O        13.1485019220       18.6932497336        2.5924486750
  O        13.9202074122       16.9165185493        1.4111454091
  O        50.5970122059       19.3492450828        0.0186778657
  O        47.6838007577       16.3269741017        2.4222611846
  O        46.9527526911       18.1759869285        1.3289662931
  O        11.0703842604       17.0142681197        1.4944358578
  O        47.6761046878       16.3350133902       13.6478383242
  O        46.9295060358       18.2354329706       14.6602038692
  O        49.5721259634       18.3097586394       13.9792788271
  O        10.3184659715       15.0973748702        0.0037591375
  O        52.6705639654       21.0276984452        1.2457556918
  O        12.1397544413       20.8880358740       14.6638296933
  O        13.1086571818       18.6126730847       13.3207306479
  O        13.9586151110       16.9865877707       14.6607056681
  O        29.9887263623       14.4324137036        2.7291293681
  O        28.0864893863       14.6531926145        1.4990563621
  O        32.1430201750       16.8520390426        0.0805795301
  O        30.9649099697       20.9494040302        2.4159850792
  O        32.9449396941       20.5994545428        1.3408399082
  O        29.5674397548       17.0723829793        1.5828229057
  O        30.8749567188       20.9489769788       13.6546138424
  O        32.8766232600       20.5873743888       14.6629886286
  O        31.6765074872       18.2522824526       13.9924466627
  O        28.2595466647       18.6299343249        0.0850660825
  O        32.4937811503       14.2116794623        1.3348089738
  O        32.4092948520       14.2159118360       14.8191207015
  O        29.9111295169       14.4346992113       13.4863987388
  O        28.0341648419       14.5891560524       14.7498990779
  O        17.8893111942        1.9663823616        2.6678083970
  O        18.9562077527        3.5271133061        1.4130878222
  O        39.1686530184       34.1388452378        0.0022461860
  O        43.2801508867       33.0591731685        2.3367449767
  O        42.0344131948       31.5066237557        1.2466568008
  O        20.3178705464        1.0369142733        1.4851240338
  O        43.2761389800       33.1822608637       13.5696645151
  O        42.0054214978       31.5839412744       14.5776850854
  O        40.5789720881       33.7749756974       13.9305423607
  O        22.3673992355        1.3846120621        0.0029533293
  O        36.6727652923       35.0998497247        1.2383624078
  O        16.4456479779        0.0641534331       14.6630953181
  O        17.9365666467        2.0432173481       13.3213068742
  O        18.9190293279        3.5931397053       14.6607582630
  O        29.7897543454       19.0513622809       12.0843660160
  O        29.7350166345       18.9786652744        4.0817924717
  O        31.3801382349       16.1254796493       12.0675525908
  O        31.3044213741       16.2779594724        4.0115243785
  O        32.1083939110       17.2137114769        9.6555602680
  O        27.7982843140       17.2236377597       10.2511089836
  O        30.2558239710       15.6067331225        6.5047474231
  O        31.4544347345       18.0169784775        6.7387406699
  O        30.8813888181       20.0840720997        9.4023685128
  O        28.6421734831       18.0981506488        6.4188392067
  O        39.4567705855       35.2438105029       11.9968489662
  O        19.1415182162        0.0045707734        3.9956124244
  O        41.9694878870       35.1726808014       12.0820074016
  O        21.6911276460       -0.0693898198        3.9010736805
  O        51.3663762683       18.6102979406       11.9987582628
  O        10.7512767040       18.7472325740        3.9091352139
  O        50.0796983319       16.4121652088       12.0865670452
  O         9.5245963953       16.4831986931        3.9963055710
 Zr         9.2998813437       16.0468718459       14.1783885883
 Zr        49.8362789571       16.0065053002        1.7513645219
 Zr        22.0737327407        0.0302468784       14.1836365066
 Zr        42.4613666979       35.1538201131        1.8061579198
 Zr        29.5882060706       19.0792801167       14.2863797886
 Zr        29.5733444658       19.1606016139        1.8893622305
 Zr        11.0377683763       19.0500120301        1.8305499754
 Zr        11.0461740614       19.1394049796       14.2417762040
 Zr        31.3539653311       16.0939746405        1.8823710380
 Zr        31.3876909659       16.0008677876       14.2633174152
 Zr        18.6017775093       -0.0003352261        1.7683342321
 Zr        18.5068694820       -0.0072319682       14.2087503459
 Zr        12.3069716262       16.3170201959       15.9881149460
 Zr        48.6160624899       18.8321765681        0.0131711464
 Zr        20.3153429402        2.4740884713       15.9850905357
 Zr        40.6446014766       32.6877894113       15.9729478516
 Zr        28.3462236144       16.3332284231        0.0884985661
 Zr        32.6221199471       18.8205373533        0.0542938980
  H        32.2476563980       18.5309427512        6.5179063389
  O        30.0352098273       15.3845004562        9.7501122717
  H        30.5253696083       15.5388767534       10.6234870615
  H        29.8379793043       14.4321074304        9.7280662992
  O        32.9905165127       15.2352227396        6.8268633693
  H        33.2048672689       15.9315581717        6.1811060321
  H        32.0983808417       14.9514572618        6.5213885725
  O        28.3026843350       19.4159253911        8.9112246310
  H        27.6404495476       19.4490830714        8.1969803346
  H        28.0827390588       18.5676663552        9.4448181047
  O        30.3697401454       20.6616437061        6.2409779702
  H        30.2483015398       20.1223779728        5.4018070408
  H        29.7193945177       21.3761887579        6.1496273027
  H        28.5369187502       16.5902224489       10.0745194138
  H        29.9677833848       20.3673362558        9.6173058297
