     586
 i =      222, E =     -4847.7972289283
  C        11.8581722871       14.0538041348       13.7365476519
  C        12.4557685613       12.8905021670       13.0182086923
  C        11.7045659956       12.1727617821       12.0753366059
  C        12.2808408269       11.1105216575       11.3828793848
  C        13.6208344981       10.7394563941       11.6118422684
  C        14.3533872549       11.4417492345       12.5866901349
  C        13.7805991503       12.5067799685       13.2782262855
  C        14.2605160725        9.6488851779       10.8384577614
  C        14.2566653946        9.6571782751        9.4167413068
  C        13.7439587051       10.7594884734        8.6627660550
  C        49.1264713180       21.2333159562       13.8746927134
  C        48.5497947908       22.4010839296       13.1474727242
  C        49.2998509313       23.0684242167       12.1664858455
  C        48.7328538350       24.1074224338       11.4332003993
  C        47.4023001769       24.5091309333       11.6618216790
  C        46.6713061297       23.8600898031       12.6752129213
  C        47.2337251756       22.8151749870       13.4045629593
  C        46.7721517356       25.5868032005       10.8645538948
  C        46.7617066145       25.5574614124        9.4427282147
  C        47.2614997320       24.4423494223        8.6992422484
  C        14.8606632168        8.5708191942        8.7035331720
  C        14.8906826432        8.5965430428       11.5150944006
  C        49.1130645316       21.2034559637        2.1502326006
  C        48.5279133029       22.3648268386        2.8773898821
  C        49.2670852743       23.0254167456        3.8704540167
  C        48.6907602404       24.0599511909        4.6018895416
  C        47.3604014218       24.4569363567        4.3635200120
  C        46.6400286663       23.8120298549        3.3399561419
  C        47.2134988783       22.7760099223        2.6082790863
  C        46.7220596277       25.5319012701        5.1545322734
  C        46.7340883429       25.5283929368        6.5762877062
  C        47.2493267576       24.4291163374        7.3326427314
  C        40.6187336165       17.0884464792        7.3108862129
  C        40.6289653520       17.1275250972        4.4979240788
  C        11.8825795916       14.0866826241        2.2903287048
  C        12.4718281749       12.9103265918        2.9944411895
  C        11.7147269969       12.1781859484        3.9216467714
  C        12.2811827510       11.0956969943        4.5902069618
  C        13.6194558840       10.7207833503        4.3572916024
  C        14.3568286336       11.4351031263        3.3951026438
  C        13.7915483706       12.5163439320        2.7223704162
  C        14.2532315416        9.6242205002        5.1278315608
  C        14.2528095406        9.6446920001        6.5496815679
  C        13.7434078096       10.7538988590        7.2967136716
  C        22.5118187569        3.2437646197       13.7488344503
  C        23.2285706762        4.3502356512       13.0501136591
  C        24.2258247546        4.0703457062       12.1042641190
  C        24.8541920826        5.1098323909       11.4230707990
  C        24.5016953881        6.4519345887       11.6682467080
  C        23.5325394251        6.7234295974       12.6512055307
  C        22.8993539241        5.6854421173       13.3303244032
  C        25.1077801383        7.5579987759       10.8921053479
  C        25.0774839203        7.5510415812        9.4694412761
  C        24.3706964618        6.5544326460        8.7260035564
  C        38.2983479989       31.9240544793       13.8445583536
  C        37.5630287085       30.8338499782       13.1436138004
  C        36.6091431433       31.1335180778       12.1574324589
  C        35.9889010870       30.1114503885       11.4447727394
  C        36.3016371830       28.7589248382       11.6934044167
  C        37.2233180184       28.4682814008       12.7187396253
  C        37.8494772438       29.4890783033       13.4298538467
  C        35.6972322375       27.6691317625       10.8949185289
  C        35.7091017489       27.7026107517        9.4654542435
  C        36.4211204378       28.6960439845        8.7338180144
  C        25.7019773743        8.6190293288        8.7473814134
  C        25.7070078144        8.6329388287       11.5602411196
  C        38.3260273427       31.9610279854        2.1613375288
  C        37.6001479887       30.8939087115        2.8992094693
  C        36.6918247442       31.2068178076        3.9237955612
  C        36.0798049641       30.1924941842        4.6551827512
  C        36.3547400429       28.8351163345        4.3859695279
  C        37.2382390425       28.5341402915        3.3288696397
  C        37.8556199742       29.5448323848        2.6005084972
  C        35.7410732358       27.7413204835        5.1668137718
  C        35.7323563254       27.7385239439        6.5950058399
  C        36.4317731157       28.7147307737        7.3624844810
  C        46.1361515913       26.6210857597        7.2864214028
  C        46.0876934670       26.5800498825        4.4785366760
  C        22.4580960615        3.2549060824        2.2625005684
  C        23.1479004829        4.3656923083        2.9878633562
  C        24.1491284576        4.0821826158        3.9300362243
  C        24.7727923305        5.1140204999        4.6272409058
  C        24.4155406427        6.4588055147        4.4036891618
  C        23.4365189911        6.7356480968        3.4307497118
  C        22.8080422862        5.7037921786        2.7345761825
  C        25.0451925039        7.5579199607        5.1763042997
  C        25.0463207561        7.5500527550        6.6004015882
  C        24.3542682369        6.5549500261        7.3585022972
  C        26.6237764575       17.8598761596       13.7752895751
  C        25.3201918233       17.9108959082       13.0543323982
  C        25.0661202719       18.9001374302       12.0889604350
  C        23.8544106241       18.9207771348       11.4023610500
  C        22.8540398960       17.9586432040       11.6587883781
  C        23.1036288727       16.9962696277       12.6567689670
  C        24.3184740396       16.9672260583       13.3386915446
  C        21.5823003024       17.9436150318       10.8957243845
  C        21.5825224899       17.9252778584        9.4713918225
  C        22.7853334355       17.7944737307        8.7104075975
  C        34.4291337147       17.2237105816       13.8783005823
  C        35.7208513675       17.1618978675       13.1492596268
  C        35.9227086761       16.2030399636       12.1417705462
  C        37.1076777242       16.1860204582       11.4150970107
  C        38.1294193875       17.1237741333       11.6721001411
  C        37.9319445561       18.0562813734       12.7107096109
  C        36.7438711491       18.0807488275       13.4352977805
  C        39.3795476653       17.1328308372       10.8863002830
  C        39.3686422408       17.1247077003        9.4601969827
  C        38.1634911081       17.2434695268        8.7058889773
  C        20.3351675101       17.9438841515        8.7634100079
  C        20.3568916818       17.9402745083       11.5781636402
  C        34.4448402500       17.2364291608        2.1915474433
  C        35.7384203402       17.1275058978        2.9016371020
  C        35.9358927408       16.1652297823        3.9090877838
  C        37.1214793264       16.1416055364        4.6353427093
  C        38.1540170520       17.0694696262        4.3730690679
  C        37.9665846296       17.9916121964        3.3221173229
  C        36.7767129840       18.0290197551        2.6056999816
  C        39.3971054463       17.0951929730        5.1644366869
  C        39.3785134166       17.1035216133        6.5907136617
  C        38.1688966140       17.2310819663        7.3359393990
  C        35.0823711843       26.6658870848        7.2947362514
  C        35.1605992958       26.6675689661        4.4810804849
  C        26.5653958756       17.8214092690        2.3331809873
  C        25.2551088181       17.8754171105        3.0320037469
  C        24.9941077495       18.8754443128        3.9831888908
  C        23.7782254657       18.8997621985        4.6577765906
  C        22.7883378549       17.9271208428        4.4050397082
  C        23.0414917869       16.9572173630        3.4166101798
  C        24.2594178427       16.9276867893        2.7424590723
  C        21.5282649175       17.9066548922        5.1787638270
  C        21.5548764507       17.9048764032        6.6019952392
  C        22.7718559008       17.7843800803        7.3427396636
  C        14.0460498604       17.8286788944        2.2936826587
  C        15.3506930281       17.8855291832        3.0192723488
  C        15.6059765279       18.8860048535        3.9702608194
  C        16.8144291658       18.9060848531        4.6638277682
  C        17.8031753913       17.9290852001        4.4282545072
  C        17.5523442353       16.9528555436        3.4451226164
  C        16.3429690577       16.9278602135        2.7536650342
  C        19.0721262215       17.9121698455        5.1961486568
  C        19.0728664992       17.9166786666        6.6207382910
  C        17.8682925703       17.8181474032        7.3824901087
  C        46.8011271538       17.2155280460        2.1609107695
  C        45.5075717066       17.1456349989        2.8961738228
  C        45.3086924881       16.1807212874        3.8967227573
  C        44.1246901289       16.1594667063        4.6278926510
  C        43.1049073519       17.1009638049        4.3813492144
  C        43.3001054643       18.0411522629        3.3501139356
  C        44.4858750291       18.0681221598        2.6209457406
  C        41.8541124997       17.1126627088        5.1708960039
  C        41.8641180760       17.1098949576        6.5982372682
  C        43.0699216312       17.2198342710        7.3516831486
  C        20.3207128036       17.9323256509        7.3280580508
  C        20.2952010971       17.8868223120        4.5136577487
  C        46.7842143277       17.2318951332       13.8813967897
  C        45.4850648525       17.1283351373       13.1642552730
  C        45.2776548591       16.1515138953       12.1770351089
  C        44.0926577228       16.1312927245       11.4472073382
  C        43.0791909193       17.0815866914       11.6873864871
  C        43.2774115776       18.0250872650       12.7147665878
  C        44.4650452976       18.0546268118       13.4373769164
  C        41.8343559690       17.1071393399       10.8932985195
  C        41.8538495414       17.1070447002        9.4671845306
  C        43.0654941895       17.2152662593        8.7220731267
  C        46.1537878167       26.6374139345        8.7209807298
  C        46.1617531722       26.6556842813       11.5306478292
  C        14.0460016397       17.8324704435       13.7043880000
  C        15.3687660273       17.9088172990       13.0155785385
  C        15.6415341004       18.9227236188       12.0849513033
  C        16.8709708635       18.9611456531       11.4309580859
  C        17.8570896214       17.9853262183       11.6816896139
  C        17.5910835331       17.0008097796       12.6510865412
  C        16.3633312127       16.9616889292       13.3082508906
  C        19.1242008615       17.9610058388       10.9127672793
  C        19.0999854943       17.9405167123        9.4891498372
  C        17.8814848361       17.8289719333        8.7499087083
  C        28.8013343571       14.0852255576        2.3984167145
  C        28.1926272941       12.9156634844        3.0815563064
  C        28.9177643993       12.1600188846        4.0172615065
  C        28.3136142667       11.0900056765        4.6701695660
  C        26.9714159684       10.7436809852        4.4082235402
  C        26.2708747072       11.4737946085        3.4302113018
  C        26.8699321913       12.5482771174        2.7799458494
  C        26.3009901616        9.6678495290        5.1699195277
  C        26.2998276595        9.6917182106        6.5918670805
  C        26.8076118405       10.8030209280        7.3351132722
  C        32.1724448446       21.2418112230        2.1505772577
  C        32.7510687808       22.4157734213        2.8547224265
  C        31.9996068489       23.0936316732        3.8299570818
  C        32.5633495829       24.1357921891        4.5563219195
  C        33.8964576995       24.5383116811        4.3307535882
  C        34.6252818572       23.8848065484        3.3166042725
  C        34.0655591424       22.8345466829        2.5932587194
  C        34.5207808479       25.6092055436        5.1335580896
  C        34.4880756390       25.5861638201        6.5601355979
  C        33.9739971765       24.4759894364        7.2922846866
  C        25.6905868036        8.6149964739        7.3127192894
  C        25.6548226661        8.6215693909        4.4984509691
  C        32.0860897320       21.2050530150       13.8589560164
  C        32.6431189030       22.3449410807       13.1179973043
  C        31.9185930444       22.9951086445       12.0946042568
  C        32.4974222516       24.0232560352       11.3599203559
  C        33.8129852260       24.4708998445       11.6329989067
  C        34.5071719398       23.8500374092       12.6976478890
  C        33.9455261557       22.8020872897       13.4120425904
  C        34.4550063702       25.5458197221       10.8606314772
  C        34.4522162674       25.5580812602        9.4311693315
  C        33.9576117162       24.4645953762        8.6631470140
  C        40.6131953774       17.0933472605        8.7469806540
  C        40.6053675337       17.1456116172       11.5605643282
  C        28.7448133725       14.0674373628       13.8144918912
  C        28.1388607971       12.9245012791       13.0742847239
  C        28.8772492959       12.2280115313       12.1030676066
  C        28.2966646745       11.1733891131       11.4026427323
  C        26.9634681340       10.7839716505       11.6501719207
  C        26.2449774854       11.4670775264       12.6496715291
  C        26.8216868110       12.5244394473       13.3495232518
  C        26.3216983979        9.6929475456       10.8804675416
  C        26.3110963030        9.7050365571        9.4580755295
  C        26.8103177277       10.8104804602        8.7016791960
  C        18.1352207002        3.1801772691        2.3220684902
  C        17.4055094705        4.2777185063        3.0206596230
  C        16.3912827239        3.9991783151        3.9496600604
  C        15.7434357269        5.0390693335        4.6132661538
  C        16.0937358118        6.3829329884        4.3722011452
  C        17.0814025733        6.6525603592        3.4067111465
  C        17.7305802780        5.6152955730        2.7415937020
  C        15.4696449987        7.4907425922        5.1352404174
  C        15.4857116161        7.4906159261        6.5569522689
  C        16.1875449105        6.4972351226        7.3101915473
  C        42.9457661965       31.8592294754        2.0777855585
  C        43.6461402316       30.7717777718        2.8218857332
  C        44.5919679915       31.0930568082        3.8076906106
  C        45.1976046548       30.0875246259        4.5553706520
  C        44.8709529706       28.7344732454        4.3406702641
  C        43.9446420736       28.4201915254        3.3278955417
  C        43.3356982590       29.4253461841        2.5799933012
  C        45.4886648968       27.6552662234        5.1437966733
  C        45.4931280496       27.6810552114        6.5655344836
  C        44.8056267310       28.6887894349        7.3121177735
  C        14.8568994215        8.5632375512        7.2692838495
  C        14.8738207470        8.5622354021        4.4566681104
  C        42.9461300544       31.9610051928       13.8039960993
  C        43.6912645890       30.8850621060       13.0902997392
  C        44.6560251971       31.1909869366       12.1181573037
  C        45.2774360202       30.1714118826       11.4003814639
  C        44.9535476596       28.8210736405       11.6378628456
  C        44.0196989849       28.5234466976       12.6483126452
  C        43.3913671608       29.5401870257       13.3604521843
  C        45.5627109901       27.7238172974       10.8526082430
  C        45.5334698608       27.7174045596        9.4312480201
  C        44.8267954100       28.7073643401        8.6783485332
  C        35.0672432223       26.6499404612        8.7318293304
  C        35.1034070480       26.5859187095       11.5465586628
  C        18.1483623729        3.2462609174       13.7017197587
  C        17.4293031064        4.3434402131       12.9925628631
  C        16.4153153093        4.0520563212       12.0677774953
  C        15.7669261618        5.0826308166       11.3922828320
  C        16.1202368762        6.4280044787       11.6161669448
  C        17.1101424508        6.7114554151       12.5749261596
  C        17.7578736546        5.6825755388       13.2547290497
  C        15.4900231408        7.5238019793       10.8436316317
  C        15.4967048076        7.5076262090        9.4224810373
  C        16.1937396236        6.5060967419        8.6757930396
  H        10.6728959998       12.4680333214       11.8974133231
  H        11.6948446447       10.5530112069       10.6553555571
  H        15.3898836660       11.1659174564       12.7695564598
  H        14.3494163460       13.0691621549       14.0148040076
  H        13.3769786852       11.6316384053        9.1960655116
  H        50.3224996841       22.7482161957       11.9817357544
  H        49.3191266850       24.6225196740       10.6753531284
  H        45.6416581188       24.1605217382       12.8580990582
  H        46.6624749482       22.2894605141       14.1661717486
  H        47.6293968289       23.5756698897        9.2408920993
  H        14.8700364878        8.5872887159       12.6033803837
  H        50.2870044199       22.7022631897        4.0654931424
  H        49.2689157907       24.5751424125        5.3657401706
  H        45.6105492953       24.1091143100        3.1510225539
  H        46.6524685070       22.2535352351        1.8370621404
  H        47.6075323092       23.5517222914        6.8017966147
  H        40.6335753570       17.0965104509        3.4098799969
  H        48.6864520858       14.0952384402       15.7945933447
  H        10.6816814277       12.4683177142        4.0998931911
  H        11.6896398540       10.5262425914        5.3038648020
  H        15.3917395736       11.1560327897        3.2080927560
  H        14.3632688510       13.0848779124        1.9927030159
  H        13.3766043226       11.6224886621        6.7580145064
  H        47.9293863443       14.2214391703        1.7151655988
  H        47.7804225836       14.3772459576       14.4895483203
  H        49.0804132521       18.5510713443        2.8713290607
  H        10.4148286542       14.1345497980        0.0036899111
  H        24.4855536061        3.0315021284       11.9128673811
  H        25.6268973237        4.8916991124       10.6890341289
  H        23.2513235905        7.7562602799       12.8461481968
  H        22.1283415183        5.8854272603       14.0704478062
  H        23.8098168710        5.7987019297        9.2680952739
  H        36.3789772826       32.1761344000       11.9510738862
  H        35.2518058466       30.3513904609       10.6817005176
  H        37.4768538323       27.4296285731       12.9209062772
  H        38.5872028666       29.2671414029       14.1974253260
  H        36.9983134278       29.4360940711        9.2802150681
  H        25.7426555504        8.6165946615       12.6480830124
  H        36.4876923085       32.2522689891        4.1435283631
  H        35.3720117031       30.4430660815        5.4420770632
  H        37.4661736426       27.4924163096        3.1131397975
  H        38.5616802205       29.3137830864        1.8065808571
  H        37.0179913736       29.4678795188        6.8443982187
  H        46.1085238923       26.5871642412        3.3904833205
  H        44.6672508259       35.1155294338       15.8088966826
  H        24.4290104674        3.0445055625        4.0972542494
  H        25.5531932874        4.8872926372        5.3505152119
  H        23.1478753469        7.7691887304        3.2505575529
  H        22.0360548582        5.9134938769        1.9977804791
  H        23.7799084853        5.8002242867        6.8291289911
  H        44.9503209605       34.3875538129        1.6987268282
  H        44.8980138968       34.2051669895       14.4858513552
  H        40.6618834917       33.2057307612        2.8563514225
  H        23.1504384918        1.9562074399        0.0104428728
  H        25.8296244153       19.6517672130       11.9004565702
  H        23.6616048436       19.6944919405       10.6621724686
  H        22.3446761885       16.2451985073       12.8663273460
  H        24.5189080725       16.2073813551       14.0903999556
  H        23.7255622117       17.6643596514        9.2383814220
  H        35.1375063651       15.4792165153       11.9379371329
  H        37.2631221724       15.4345596845       10.6442506593
  H        38.7107595717       18.7877098208       12.9165047723
  H        36.5782700766       18.8185141514       14.2170329813
  H        37.2264975388       17.3807819868        9.2374974737
  H        20.3631882290       17.9774303272       12.6661978032
  H        35.1427142052       15.4480057749        4.1099296514
  H        37.2725006116       15.3929083365        5.4100910840
  H        38.7535443598       18.7119086613        3.1081948357
  H        36.6159682467       18.7673269283        1.8238358171
  H        37.2361764704       17.3603184737        6.7949516722
  H        35.1506041228       26.6898333082        3.3928600788
  H        28.4977628826       21.0703123778       15.9632680893
  H        25.7561079432       19.6278626356        4.1720585211
  H        23.5747780307       19.6785329860        5.3895233890
  H        22.2860960803       16.2009784027        3.2131853857
  H        24.4693156914       16.1634340272        1.9980668583
  H        23.7018388090       17.6472774195        6.7989698181
  H        29.0229823579       21.7117756235        1.7487832781
  H        29.1860239409       21.7204427471       14.6318092167
  H        32.1574413810       18.5956787488        2.9573621678
  H        27.3774834530       19.0230059694        0.0832241637
  H        14.8463568778       19.6434297642        4.1504196552
  H        17.0078523476       19.6882764345        5.3947637199
  H        18.3039286182       16.1893882638        3.2549043184
  H        16.1375728870       16.1604258773        2.0111115951
  H        16.9252949790       17.7000444975        6.8567313956
  H        46.1003050919       15.4618948607        4.0948799864
  H        43.9740742578       15.4049463162        5.3968017803
  H        42.5232401844       18.7772742210        3.1539288616
  H        44.6517693188       18.8115445330        1.8447073976
  H        44.0096376103       17.3427640277        6.8211109156
  H        20.2872079221       17.9110508745        3.4253597537
  H        46.0615378565       15.4224719457       11.9846970353
  H        43.9366814399       15.3731307814       10.6829289443
  H        42.5034045002       18.7650333356       12.9075937996
  H        44.6377871400       18.8052821472       14.2047119614
  H        44.0017505167       17.3336122815        9.2595621450
  H        46.1979113680       26.6818665264       12.6181284042
  H        52.7403751505       21.0620975278        0.1995365783
  H        14.8795025501       19.6742926631       11.8905490756
  H        17.0801327290       19.7503141625       10.7119483521
  H        18.3422589423       16.2397868258       12.8523051170
  H        16.1429452482       16.1880315144       14.0397963260
  H        16.9484274349       17.7190273625        9.2942170076
  H        52.3189472184       21.6721073479       14.2903913727
  H        52.0103859707       21.6998399113        1.5002074474
  H        49.0647328142       18.6073445173       13.2001116115
  H        13.2469852704       19.0166911213       15.9722458434
  H        29.9561907720       12.4181280688        4.2126832927
  H        28.8762382760       10.5039166335        5.3936407334
  H        25.2353667325       11.2152555022        3.2186223130
  H        26.3232447363       13.1344031826        2.0454369065
  H        27.1653424645       11.6733983426        6.7932696712
  H        30.9740137293       22.7792337365        4.0066215954
  H        31.9761862906       24.6606673929        5.3066289173
  H        35.6547636330       24.1852463495        3.1326137095
  H        34.6399676171       22.3064956506        1.8355490343
  H        33.6244342349       23.6065143894        6.7433724824
  H        25.6766944696        8.6038237269        3.4102119964
  H        30.8903413408       22.6923065892       11.9053604093
  H        31.9251632429       24.5241541084       10.5819034884
  H        35.5198989341       24.1774879298       12.9237821233
  H        34.5014021232       22.3041006269       14.2027548606
  H        33.5976525236       23.5846414564        9.1878857930
  H        40.6028177969       17.1196658927       12.6487357315
  H        32.5157934576       14.1478381066        0.2637625610
  H        29.9116567441       12.5175516434       11.9268417325
  H        28.8764860873       10.6263985678       10.6621483333
  H        25.2145377177       11.1793275281       12.8480301958
  H        26.2613874527       13.0666669791       14.1074932863
  H        27.1688740837       11.6866834201        9.2335768315
  H        33.3013435503       14.1895542998       14.4371990779
  H        33.4075384497       14.3956453234        1.6147159273
  H        32.1382481275       18.5394010664       13.1962624703
  H        30.2291674382       14.1920936452        0.0913159751
  H        16.1205960883        2.9625013626        4.1371737726
  H        14.9551293791        4.8193992300        5.3300949490
  H        17.3621653621        7.6856119744        3.2121518047
  H        18.5110910644        5.8178043444        2.0120770926
  H        16.7539496595        5.7397675207        6.7767210550
  H        44.8282339966       32.1401496886        3.9817480912
  H        45.9373905096       30.3411167479        5.3114324876
  H        43.6812619328       27.3782109148        3.1583047354
  H        42.5981509336       29.1901098267        1.8161851796
  H        44.2295393847       29.4360008854        6.7738149134
  H        14.8490880162        8.5448639116        3.3684791893
  H        44.8994971356       32.2336953858       11.9268339608
  H        46.0241945600       30.4125197088       10.6469757228
  H        43.7621725639       27.4837713699       12.8394156977
  H        42.6442064249       29.3173980087       14.1182643335
  H        44.2674734391       29.4696790320        9.2129060521
  H        35.0775194377       26.5858799699       12.6348375587
  H        36.6046589414       35.1331438371        0.1864324293
  H        16.1454178516        3.0123093821       11.8971099302
  H        14.9755908864        4.8555102581       10.6811833100
  H        17.3921984060        7.7470969348       12.7530727915
  H        18.5394652049        5.8928827438       13.9809125941
  H        16.7649805861        5.7557563141        9.2142936678
  H        36.2806435662       34.4789703729       14.2693410327
  H        36.3848854687       34.2073973616        1.5057414369
  H        40.5757373177       33.1986499429       13.1502768819
  H        17.4708541574        1.9453699279       15.9686003030
  H        28.7578855825       18.8032235115        4.3904958860
  H        30.2890247027       19.8051021675       11.8628782602
  H        32.3231907281       16.2038261007       11.8121647312
  H        30.8563626286       15.2879849501        4.3016671633
  H        28.1380628178       17.3267527494        6.9191457904
  H        29.9322652480       14.8320528876        6.8288200320
  H        31.7721909609       20.3498796408        8.9667564983
  H        33.0360139795       17.8553303864        9.3658591126
  H        28.6876943238       17.3019232422       10.3496676556
  H        18.8540326189        0.8694779870        4.3399805950
  H        40.5273768959       35.2294376661       11.9476902840
  H        42.3193673654       34.4142195336       11.5889879455
  H        22.0879874308        0.6927289378        4.3552001227
  H        11.5976352071       18.7119006263        4.3862991628
  H        52.2649265207       18.4299184478       11.6734971793
  H        49.2536558411       16.4806128977       11.5819873288
  H        10.1506926688       15.7984564431        4.2973824795
  H        50.8493547757       17.6921402672       11.9496618393
  H        10.0455317981       17.3946381365        4.0571008358
  H        20.2142196923        0.0017020882        4.0473560815
  H        39.1829161929       36.1242364505       11.6820997047
 Ni        30.9895143774       17.7983924351       10.7472523919
 Ni        31.3265091027       16.3287669958        8.3294362969
 Ni        29.8019952769       18.9665711565        7.8240016660
 Ni        30.1358980315       17.1637420322        5.5760821126
  O        10.6497497277       14.3650937821       13.4805355478
  O        12.6131595484       14.6574871521       14.5787069177
  O        49.1478482143       16.8460519501       15.9847447265
  O        50.3502530781       20.9360982774       13.6431656046
  O        48.3485848060       20.5934684196       14.6609189843
  O        11.0510046866       17.0541783847       14.4953288319
  O        50.3211918313       20.8817480395        2.4118152240
  O        48.3467969118       20.5868638860        1.3321612489
  O        49.5434728040       18.2485474100        2.0733900172
  O        12.3588568029       18.6244028480        0.0048181992
  O        48.6928837922       14.1485929371       14.7459843223
  O         8.2096031467       14.2102635528        1.3277831804
  O        10.7353583779       14.5066317492        2.6695271122
  O        12.5718214682       14.5827907233        1.3335301947
  O        22.8450339774        2.0436530578       13.4817327331
  O        21.6056179213        3.5927294057       14.5844370675
  O        42.0572325241       34.1362311902       15.9737483374
  O        37.9814076982       33.1346254053       13.5670652353
  O        39.2180656708       31.5752734710       14.6611480526
  O        20.3078429643        1.0386000032       14.4963812243
  O        38.0254839358       33.1878718624        2.4193099899
  O        39.2190086561       31.5839702990        1.3313907626
  O        40.6522319317       33.7688340950        2.0653287612
  O        18.2561670622        1.3751231304        0.0018181573
  O        44.6223026123       35.1003362949       14.7535034420
  O        24.2053138580       -0.0000297182        1.3260240175
  O        22.7530398644        2.0582923132        2.5891300043
  O        21.6238963327        3.5959664112        1.3466690860
  O        27.5085394774       18.7471159747       13.4872501873
  O        26.7669352142       16.9321604847       14.6475057550
  O        30.6330871915       19.3461450839        0.0785341471
  O        33.5430794765       16.3381772639       13.5809101671
  O        34.2732391431       18.1652682033       14.7303272207
  O        29.5754729241       17.0532425416       14.5637954827
  O        33.5460186729       16.3419027720        2.4279905168
  O        34.2939266401       18.2395360027        1.4102570888
  O        31.6480562946       18.3094930776        2.1827141799
  O        30.3257619081       15.1589919218        0.0957804812
  O        28.5537465328       21.0277322701       14.8975968460
  O        28.5147485944       20.9505511781        1.4194565226
  O        27.4629342432       18.6727153911        2.6702441428
  O        26.6945921613       16.9272437307        1.4204609047
  O        13.1489623065       18.6930324333        2.5927065110
  O        13.9195618014       16.9160893255        1.4100013072
  O        50.5954064226       19.3500554273        0.0254785650
  O        47.6830871331       16.3269488006        2.4222231447
  O        46.9513689186       18.1756477513        1.3297196970
  O        11.0693930248       17.0155675512        1.4950263794
  O        47.6765510747       16.3354211719       13.6478254472
  O        46.9274767149       18.2356070412       14.6595813136
  O        49.5681782260       18.3178154348       13.9770826337
  O        10.3183724167       15.1004576120        0.0021489373
  O        52.6706618961       21.0280065870        1.2469310185
  O        12.1468003247       20.8912951141       14.6680579807
  O        13.1087746733       18.6136602923       13.3202860438
  O        13.9578170147       16.9870772669       14.6602067626
  O        29.9927955994       14.4425569085        2.7373510674
  O        28.0906164479       14.6530869583        1.5008376485
  O        32.1315448723       16.8497867781        0.0875375235
  O        30.9571828381       20.9348824575        2.4211172893
  O        32.9382447985       20.6003632703        1.3447637009
  O        29.5724327201       17.0735852613        1.5884041578
  O        30.8419716661       20.8763042191       13.6461510497
  O        32.8642521199       20.5812434908       14.6637878481
  O        31.6796664614       18.2466582197       13.9995066108
  O        28.2661380098       18.6312785854        0.0860770609
  O        32.4909657976       14.2137693558        1.3360681583
  O        32.4076263653       14.2176365706       14.8183887964
  O        29.9180987107       14.4431565625       13.4844755151
  O        28.0398196014       14.5893893276       14.7493898913
  O        17.8889947484        1.9664789417        2.6680649274
  O        18.9561329868        3.5270643078        1.4130950395
  O        39.1685718578       34.1384951509        0.0021241025
  O        43.2803205075       33.0589622266        2.3367046573
  O        42.0348474100       31.5063338502        1.2465909413
  O        20.3172946845        1.0360242348        1.4859428047
  O        43.2761489256       33.1823123008       13.5698276878
  O        42.0053283638       31.5838867468       14.5779559189
  O        40.5788088780       33.7741976288       13.9303497006
  O        22.3667145860        1.3840340131        0.0029338896
  O        36.6724454729       35.0995262371        1.2386833551
  O        16.4450710264        0.0634482651       14.6628172638
  O        17.9362626812        2.0432592310       13.3211984338
  O        18.9189686398        3.5930976770       14.6608375151
  O        29.9469499750       18.8999794281       11.9857244794
  O        29.7050239102       18.9040539336        4.1616395509
  O        31.3606225377       16.1972104832       11.9991760757
  O        31.2599275702       16.1787771486        4.2429734488
  O        32.4845805535       17.1431411812        9.7258829883
  O        28.4610163790       17.3712498682        9.3990425818
  O        29.8301077848       15.7648246152        7.0805343693
  O        31.3330504881       17.9459631112        7.0132850536
  O        30.9621102598       19.9411949202        9.3256690307
  O        28.5653692514       18.0980824628        6.5038088740
  O        39.4565396720       35.2435438089       11.9968483578
  O        19.1414736104        0.0046537066        3.9959605221
  O        41.9699562273       35.1727128923       12.0822053610
  O        21.6916551111       -0.0693816801        3.9008307696
  O        51.3649741665       18.6141967254       12.0004247539
  O        10.7512190402       18.7472955796        3.9100192442
  O        50.0797103807       16.4129229300       12.0863500942
  O         9.5243927172       16.4830824227        3.9964030485
 Zr         9.2937314962       16.0532979037       14.1770604634
 Zr        49.8339101855       16.0073241514        1.7517275674
 Zr        22.0714416887        0.0265801694       14.1849736362
 Zr        42.4591169638       35.1503834396        1.8049781479
 Zr        29.5955207020       19.0771545644       14.2849663371
 Zr        29.5711069607       19.1692323548        1.8987802655
 Zr        11.0360419443       19.0519915100        1.8322629551
 Zr        11.0417874199       19.1547435591       14.2466701844
 Zr        31.3588228066       16.1090990543        1.8921608822
 Zr        31.3857909983       16.0026368559       14.2761358594
 Zr        18.5994019335       -0.0054638255        1.7693122711
 Zr        18.5049109071       -0.0122118369       14.2080949808
 Zr        12.2994973832       16.3240314753       15.9848475286
 Zr        48.6125679549       18.8322990776        0.0151868811
 Zr        20.3129686915        2.4690924822       15.9853615719
 Zr        40.6391467203       32.6824990270       15.9734072226
 Zr        28.3375547589       16.3338035025        0.0875736963
 Zr        32.6304551558       18.8411973871        0.0521321820
  H        32.0845662199       18.4829806517        6.7106300512
  O        30.9212305134       14.8674237540        9.8160547382
  H        31.0011425272       15.2472401308       10.7642758571
  H        30.1129191563       14.3309795298        9.7855860113
  O        32.6940850862       15.3132596306        6.9015420102
  H        33.6493560557       15.4617170037        6.9960424477
  H        32.4534005581       15.6399846566        6.0006858868
  O        28.0075515673       20.0682085586        8.3334992541
  H        27.6341791386       19.6462473603        7.5223606368
  H        27.6160889248       19.5394352511        9.0570444263
  O        30.2886221272       20.3670270986        6.2497653556
  H        30.0883582511       19.8639424007        5.3558777670
  H        29.7778989810       21.1919844415        6.2054292043
  H        28.8247152216       16.5641359416        8.9729112870
  H        30.4570287324       20.6787551197        9.7188397431
