     586
 i =      192, E =     -4847.8603356198
  C        11.8593091849       14.0525711163       13.7363222362
  C        12.4571472920       12.8904761691       13.0163683552
  C        11.7048939074       12.1712609717       12.0754797546
  C        12.2807821907       11.1086029459       11.3833814447
  C        13.6213888078       10.7388602701       11.6107070277
  C        14.3552429582       11.4428623522       12.5832959412
  C        13.7827442974       12.5081793652       13.2745558646
  C        14.2604126513        9.6477275143       10.8377078617
  C        14.2550718655        9.6550651424        9.4160471392
  C        13.7413051026       10.7568497759        8.6620815668
  C        49.1162569192       21.2046153244       13.8419032387
  C        48.5429359866       22.3793083247       13.1227908023
  C        49.2906767776       23.0448284328       12.1390448889
  C        48.7269645638       24.0930243830       11.4165061416
  C        47.4008874534       24.5033633244       11.6561986302
  C        46.6731544843       23.8567086357       12.6733381846
  C        47.2334928673       22.8049380634       13.3944769298
  C        46.7710914423       25.5837975299       10.8624284195
  C        46.7572045656       25.5539576386        9.4406010285
  C        47.2521358333       24.4370134230        8.6964521470
  C        14.8586398782        8.5684810797        8.7029066938
  C        14.8913705586        8.5960132954       11.5144724463
  C        49.1129364285       21.2031058041        2.1495091358
  C        48.5271293503       22.3642374531        2.8768367620
  C        49.2651859601       23.0245775596        3.8708629679
  C        48.6879184661       24.0588685407        4.6020200218
  C        47.3578590396       24.4558969885        4.3621221153
  C        46.6385503184       23.8111753415        3.3377814808
  C        47.2129426436       22.7753634706        2.6064786986
  C        46.7188807556       25.5308159772        5.1528777625
  C        46.7290585640       25.5261540760        6.5745107975
  C        47.2402152069       24.4245266417        7.3300261401
  C        40.6178907329       17.1245247418        7.3041574416
  C        40.6298204513       17.1034149887        4.4956038735
  C        11.8820489722       14.0850533085        2.2914981310
  C        12.4702976654       12.9082671774        2.9949699438
  C        11.7122485804       12.1757565186        3.9211322222
  C        12.2779872845       11.0926645638        4.5892474549
  C        13.6163722901       10.7178243427        4.3569080889
  C        14.3546766330       11.4324450813        3.3956814250
  C        13.7900982551       12.5141989790        2.7233211415
  C        14.2498143013        9.6211151361        5.1273418934
  C        14.2494255840        9.6415983416        6.5491514040
  C        13.7398503558       10.7507776320        7.2960528407
  C        22.5135306111        3.2444001214       13.7483080301
  C        23.2326168389        4.3488796065       13.0499102455
  C        24.2311979218        4.0660366633       12.1061165324
  C        24.8627634369        5.1033552595       11.4244512583
  C        24.5118591579        6.4463771036       11.6663990327
  C        23.5416186363        6.7208933659       12.6474904452
  C        22.9053926019        5.6852206022       13.3275033975
  C        25.1201358807        7.5510406169       10.8887956025
  C        25.0866560206        7.5444922554        9.4671652143
  C        24.3807800262        6.5459204712        8.7234743298
  C        38.2984236538       31.9267611707       13.8459700518
  C        37.5580070418       30.8375329431       13.1435153870
  C        36.5920285629       31.1441097412       12.1724267840
  C        35.9617976223       30.1262136552       11.4614984638
  C        36.2817776466       28.7745516283       11.6975188143
  C        37.2176561009       28.4753711939       12.7058584190
  C        37.8517368428       29.4923489970       13.4164533629
  C        35.6696107453       27.6871141385       10.8983204741
  C        35.7045974595       27.7045039443        9.4762975526
  C        36.4188985228       28.7041251174        8.7430227843
  C        25.7075212493        8.6140012423        8.7445828910
  C        25.7233658146        8.6245124652       11.5564763947
  C        38.3300206022       31.9603242195        2.1653632982
  C        37.6124196594       30.8874215409        2.9143792994
  C        36.6787511268       31.1976828100        3.9153877576
  C        36.0671000510       30.1812934842        4.6473740575
  C        36.3737297788       28.8273296522        4.4031946378
  C        37.2886328190       28.5268975496        3.3751246344
  C        37.9021117532       29.5399387459        2.6441472039
  C        35.7557847519       27.7301008149        5.1847516332
  C        35.7483288053       27.7266673307        6.6074088603
  C        36.4383554791       28.7156383746        7.3765923652
  C        46.1330905801       26.6195155436        7.2852051149
  C        46.0862665889       26.5801282662        4.4772032304
  C        22.4598252104        3.2547966604        2.2624763739
  C        23.1528982748        4.3631015574        2.9865921071
  C        24.1564236622        4.0760077991        3.9253548781
  C        24.7841565967        5.1054853340        4.6222779907
  C        24.4279411030        6.4509330556        4.4022023878
  C        23.4470098040        6.7314599830        3.4323491402
  C        22.8146738681        5.7021554966        2.7360525229
  C        25.0599702863        7.5485180388        5.1753315549
  C        25.0563128853        7.5424004683        6.5980503429
  C        24.3647024762        6.5458867270        7.3567971237
  C        26.6161842831       17.8513551888       13.7771431145
  C        25.3169129186       17.8905315742       13.0404283778
  C        25.0588847490       18.8885869288       12.0861175058
  C        23.8460179782       18.9093751259       11.4001277552
  C        22.8548600375       17.9369926411       11.6455126185
  C        23.1115617084       16.9590636750       12.6257004128
  C        24.3257034623       16.9315893984       13.3095909679
  C        21.5803841811       17.9276688934       10.8840993805
  C        21.5802481682       17.9177626773        9.4614879354
  C        22.7854143008       17.8062056137        8.6983056620
  C        34.4263582876       17.2266377362       13.8748452695
  C        35.7189066929       17.1746457087       13.1382971758
  C        35.9186291440       16.2264414298       12.1224431097
  C        37.1033717472       16.2156586836       11.3932375670
  C        38.1218012281       17.1520786266       11.6579448416
  C        37.9260588429       18.0780573102       12.7009160889
  C        36.7389676231       18.0943474803       13.4285758110
  C        39.3756681834       17.1639628289       10.8717523198
  C        39.3668419362       17.1759864508        9.4492742191
  C        38.1598164242       17.3097529209        8.6932310163
  C        20.3323723781       17.9360827241        8.7554900283
  C        20.3564778858       17.9245915526       11.5689066118
  C        34.4448774838       17.2332511288        2.1909319312
  C        35.7457327578       17.1268420968        2.9015444588
  C        35.9194913304       16.2004895607        3.9399433238
  C        37.1119980694       16.1736954565        4.6576857238
  C        38.1521388768       17.0759707649        4.3654410423
  C        37.9820200738       17.9754213980        3.2943432005
  C        36.7923293355       18.0054573796        2.5751319421
  C        39.3982935912       17.1047238453        5.1615376206
  C        39.3781964569       17.1464353894        6.5834827408
  C        38.1641626029       17.2936134341        7.3265310932
  C        35.1049255944       26.6520370019        7.3075779787
  C        35.1709509214       26.6580057102        4.4980163821
  C        26.5684343050       17.8233771005        2.3312296850
  C        25.2525977589       17.8789553709        3.0312306329
  C        24.9772679926       18.9028392944        3.9501289123
  C        23.7590144635       18.9310664679        4.6228965315
  C        22.7866344175       17.9367905099        4.3977852421
  C        23.0540617474       16.9390271381        3.4430703867
  C        24.2736128580       16.9076353625        2.7701281472
  C        21.5241376551       17.9197109904        5.1726203181
  C        21.5508071707       17.9129298187        6.5937322210
  C        22.7716075147       17.8046209327        7.3322408785
  C        14.0452032974       17.8298982624        2.2935227439
  C        15.3493562965       17.8886787322        3.0188472414
  C        15.6049434030       18.8941464253        3.9639639105
  C        16.8138265003       18.9168552128        4.6566460952
  C        17.7999056033       17.9369815596        4.4249558099
  C        17.5489495477       16.9552469632        3.4480833907
  C        16.3394383551       16.9279975414        2.7573025417
  C        19.0692305961       17.9223496229        5.1921982007
  C        19.0698012024       17.9187213036        6.6143978510
  C        17.8637468106       17.8168119612        7.3767185528
  C        46.8018148912       17.2149799489        2.1604872860
  C        45.5078357754       17.1433924629        2.8967852566
  C        45.3049384033       16.1663138975        3.8839897177
  C        44.1202322046       16.1406090222        4.6148875093
  C        43.1074881718       17.0914274148        4.3811138270
  C        43.3060859698       18.0448289809        3.3638494795
  C        44.4917551569       18.0751645788        2.6341225063
  C        41.8549976737       17.1030135121        5.1712979672
  C        41.8635616721       17.1219228092        6.5931641017
  C        43.0741795193       17.2212351109        7.3481653896
  C        20.3173270375       17.9319536785        7.3208555504
  C        20.2919076375       17.9043262472        4.5076559315
  C        46.7842669441       17.2336083951       13.8781790695
  C        45.4840109814       17.1361915006       13.1556002241
  C        45.2647860911       16.1455044136       12.1858191522
  C        44.0779880211       16.1257474532       11.4566802900
  C        43.0784070669       17.0938170928       11.6779514523
  C        43.2890703911       18.0548581051       12.6849737654
  C        44.4765825822       18.0810527160       13.4096378784
  C        41.8306471401       17.1216321197       10.8819959923
  C        41.8512256105       17.1301665888        9.4602541824
  C        43.0686961529       17.2216925965        8.7150437447
  C        46.1512594063       26.6354577847        8.7197590180
  C        46.1635951864       26.6538683490       11.5294789671
  C        14.0465624936       17.8291427788       13.7029992026
  C        15.3679189496       17.9010039480       13.0099026791
  C        15.6453161494       18.9188359835       12.0851850308
  C        16.8747580394       18.9545694312       11.4304132716
  C        17.8550243888       17.9713444980       11.6738523233
  C        17.5840077269       16.9812713830       12.6357993245
  C        16.3567917114       16.9455269278       13.2944946848
  C        19.1227251594       17.9469957151       10.9041412672
  C        19.0981074935       17.9297223678        9.4822851529
  C        17.8774780950       17.8218684957        8.7427385072
  C        28.8092829098       14.0861077967        2.3965052883
  C        28.1954761221       12.9127734150        3.0813814603
  C        28.9200215386       12.1678594121        4.0237252383
  C        28.3197194228       11.0929773694        4.6743717631
  C        26.9817586253       10.7393923675        4.4062616036
  C        26.2795084754       11.4637826357        3.4265103788
  C        26.8772623883       12.5391405505        2.7744383344
  C        26.3125436447        9.6604123950        5.1681032733
  C        26.3032411590        9.6871394861        6.5888375574
  C        26.8069056113       10.8015639781        7.3317797707
  C        32.1785241013       21.2350328608        2.1561630365
  C        32.7697346234       22.4013464627        2.8758703846
  C        32.0086455869       23.1028898558        3.8236970872
  C        32.5748869322       24.1458984622        4.5498279147
  C        33.9192880395       24.5152342619        4.3508195388
  C        34.6650120766       23.8312389127        3.3725501094
  C        34.1002301906       22.7834429484        2.6472796067
  C        34.5425071575       25.5933530280        5.1536489288
  C        34.5144638738       25.5700872082        6.5753018132
  C        33.9873874642       24.4605826751        7.3096988708
  C        25.6961849564        8.6096346661        7.3101302465
  C        25.6740796797        8.6097916457        4.4968157903
  C        32.0784062405       21.1977092158       13.8715392450
  C        32.6461096247       22.3595031374       13.1246478816
  C        31.8973235666       23.0368548057       12.1492643942
  C        32.4692035178       24.0755086528       11.4159197812
  C        33.8022503158       24.4716002920       11.6432373252
  C        34.5326245279       23.8095145991       12.6487404419
  C        33.9673455593       22.7644761339       13.3738024679
  C        34.4404200575       25.5597552262       10.8643136887
  C        34.4603924875       25.5538783644        9.4422392841
  C        33.9600500214       24.4538384102        8.6762616959
  C        40.6119240634       17.1344636627        8.7389545212
  C        40.6007028829       17.1546210480       11.5492033043
  C        28.7510108326       14.0695299632       13.8100451997
  C        28.1447034522       12.9244052671       13.0662088103
  C        28.8805874148       12.2368716081       12.0877183700
  C        28.3023486725       11.1786952935       11.3893000174
  C        26.9736814723       10.7809347859       11.6446496870
  C        26.2565564421       11.4572192376       12.6491829805
  C        26.8321545040       12.5157819480       13.3489199787
  C        26.3324248525        9.6873733013       10.8759387451
  C        26.3148270186        9.7012688365        9.4545405474
  C        26.8096894500       10.8091859958        8.6972810100
  C        18.1351234784        3.1805131026        2.3219103088
  C        17.4049907780        4.2771886624        3.0202375754
  C        16.3897606499        3.9978220721        3.9479800312
  C        15.7412083819        5.0371535602        4.6115745852
  C        16.0917924583        6.3811351623        4.3716239968
  C        17.0804714813        6.6516406115        3.4074154811
  C        17.7304244462        5.6149487805        2.7422844489
  C        15.4669175328        7.4882911681        5.1347449672
  C        15.4828882072        7.4878768009        6.5564213116
  C        16.1850695311        6.4946754464        7.3095605163
  C        42.9457876512       31.8594840920        2.0778483455
  C        43.6460016175       30.7720437301        2.8214783641
  C        44.5918655477       31.0933664661        3.8072627138
  C        45.1974689878       30.0877745011        4.5548219292
  C        44.8705495001       28.7348091520        4.3401289369
  C        43.9444417887       28.4204845228        3.3271612676
  C        43.3357754623       29.4256243676        2.5791411812
  C        45.4877712743       27.6553216721        5.1430747569
  C        45.4921064482       27.6808642114        6.5647612566
  C        44.8067202810       28.6896187566        7.3120355677
  C        14.8540383247        8.5604381617        7.2687255775
  C        14.8708632557        8.5595277387        4.4560888249
  C        42.9468886434       31.9608752070       13.8037104605
  C        43.6924678788       30.8847153312       13.0905922523
  C        44.6572750980       31.1903716333       12.1182684710
  C        45.2791287353       30.1707369311       11.4007857236
  C        44.9557934450       28.8201819557       11.6382728109
  C        44.0223098626       28.5227983005       12.6492618787
  C        43.3936992663       29.5395942639       13.3612783921
  C        45.5643087513       27.7226342820       10.8523240974
  C        45.5336317337       27.7164756347        9.4308854274
  C        44.8285228452       28.7078630457        8.6782713809
  C        35.0800487635       26.6424893797        8.7427738657
  C        35.0564346070       26.6125052318       11.5534484932
  C        18.1484798718        3.2467774869       13.7015698600
  C        17.4296983888        4.3434060259       12.9923275511
  C        16.4148788403        4.0517541794       12.0684459510
  C        15.7664352846        5.0821185423       11.3928372666
  C        16.1205631990        6.4274825968       11.6156409241
  C        17.1113506414        6.7112234821       12.5734225763
  C        17.7591523075        5.6825889048       13.2534382114
  C        15.4899665521        7.5228832125       10.8430007976
  C        15.4953303727        7.5057219309        9.4218766429
  C        16.1919188237        6.5039096105        8.6751697211
  H        10.6725800796       12.4652233797       11.8991725951
  H        11.6939434150       10.5496411365       10.6576459022
  H        15.3922725220       11.1680403077       12.7646834328
  H        14.3522241561       13.0715400026       14.0098662888
  H        13.3742662207       11.6289932093        9.1953353773
  H        50.3087364403       22.7161775528       11.9439690598
  H        49.3118614451       24.6075506504       10.6572312933
  H        45.6471520850       24.1638461950       12.8653244935
  H        46.6649660040       22.2819495906       14.1599482903
  H        47.6163017142       23.5684463562        9.2374490305
  H        14.8718993854        8.5875922848       12.6027847797
  H        50.2849404451       22.7015535053        4.0670041263
  H        49.2651742021       24.5737963053        5.3667382453
  H        45.6092170709       24.1080731680        3.1477791043
  H        46.6527693439       22.2530802064        1.8345238325
  H        47.5952922587       23.5462361597        6.7985586908
  H        40.6341727693       17.0493123629        3.4086429180
  H        48.6859196153       14.0948367768       15.7955080013
  H        10.6791224936       12.4659167325        4.0988608136
  H        11.6858418449       10.5227628798        5.3020519215
  H        15.3896933685       11.1533344418        3.2092984254
  H        14.3624993822       13.0829716099        1.9943871089
  H        13.3723147433       11.6190055006        6.7572840190
  H        47.9299369452       14.2177057902        1.7160709788
  H        47.7799372472       14.3743476608       14.4892120061
  H        49.0818268027       18.5527920691        2.8701852374
  H        10.4105679679       14.1312758369        0.0088622367
  H        24.4900446148        3.0266639205       11.9165953955
  H        25.6367672826        4.8827413741       10.6925114621
  H        23.2626423614        7.7546172612       12.8409264068
  H        22.1340851115        5.8884541662       14.0664357227
  H        23.8215391560        5.7891873422        9.2658924884
  H        36.3595450472       32.1881662519       11.9763185340
  H        35.2136329620       30.3698128307       10.7103176636
  H        37.4739440246       27.4353321205       12.8971604090
  H        38.5994007598       29.2667291257       14.1732795222
  H        36.9837611566       29.4515158874        9.2924718832
  H        25.7638232634        8.6068034116       12.6441159808
  H        36.4513963994       32.2421385630        4.1165954738
  H        35.3365896974       30.4295352990        5.4141948695
  H        37.5400364692       27.4865279529        3.1795273345
  H        38.6289029576       29.3108188860        1.8685354895
  H        37.0189853273       29.4716328062        6.8556982217
  H        46.1079479622       26.5881178690        3.3891781145
  H        44.6683153292       35.1159797015       15.8087512195
  H        24.4352480085        3.0376721435        4.0899845632
  H        25.5665874452        4.8765739603        5.3426800607
  H        23.1608287657        7.7660586510        3.2543465779
  H        22.0415003689        5.9148690280        2.0013852272
  H        23.7924458313        5.7896446130        6.8272419948
  H        44.9540054332       34.3904565251        1.7001489903
  H        44.9022236160       34.2069792628       14.4851701000
  H        40.6662813285       33.2086449419        2.8580397564
  H        23.1507881658        1.9569601424        0.0104264170
  H        25.8158957448       19.6478376537       11.9017403299
  H        23.6505185571       19.6906734864       10.6687254001
  H        22.3585320791       16.1987239083       12.8229759562
  H        24.5331481105       16.1656656053       14.0534073094
  H        23.7292423086       17.6913363515        9.2230836683
  H        35.1319251861       15.5071961671       11.9089337511
  H        37.2531265097       15.4743449795       10.6115670687
  H        38.7040954441       18.8090356683       12.9110369513
  H        36.5729386857       18.8244343561       14.2172753367
  H        37.2210210373       17.4546355388        9.2203238579
  H        20.3647099843       17.9576905872       12.6570217049
  H        35.1005845358       15.5393504854        4.2082848751
  H        37.2390725832       15.4552234805        5.4639746633
  H        38.7777429470       18.6802696894        3.0630163865
  H        36.6402656986       18.7210744514        1.7709351873
  H        37.2281216591       17.4228617437        6.7896050552
  H        35.1587056473       26.6788912397        3.4099083520
  H        28.5054881414       21.0748873241       15.9657075861
  H        25.7288822803       19.6701727539        4.1200865242
  H        23.5462965253       19.7268784619        5.3334863603
  H        22.3102676804       16.1653653097        3.2638243184
  H        24.4978163264       16.1245813516        2.0497721150
  H        23.7038155411       17.6893173286        6.7870432667
  H        29.0240041022       21.7062493203        1.7575542865
  H        29.1608857575       21.7319107519       14.6150948157
  H        32.1388860324       18.5493062106        2.9800698368
  H        27.3791516910       19.0267122244        0.0885183059
  H        14.8457379473       19.6528842698        4.1401709054
  H        17.0094778869       19.7025030463        5.3832927970
  H        18.3005751412       16.1909127175        3.2615920102
  H        16.1325665188       16.1574162470        2.0184835494
  H        16.9208197588       17.7016289254        6.8500481906
  H        46.0932407375       15.4414070994        4.0727092997
  H        43.9648316472       15.3765147141        5.3733781828
  H        42.5313653286       18.7856542816        3.1773062232
  H        44.6607908575       18.8270982675        1.8668741682
  H        44.0151295490       17.3270688973        6.8158984236
  H        20.2837362184       17.9317103752        3.4194969968
  H        46.0395940704       15.4036704653       12.0058461524
  H        43.9119950455       15.3551562843       10.7070020314
  H        42.5239999777       18.8074658116       12.8639660871
  H        44.6573733795       18.8424298312       14.1644024789
  H        44.0053838143       17.3266971690        9.2547408641
  H        46.2019447247       26.6802231752       12.6168928390
  H        52.7353865565       21.0628301486        0.1988637202
  H        14.8876120626       19.6761371045       11.8960642927
  H        17.0881539772       19.7474816341       10.7167450570
  H        18.3309551253       16.2146338207       12.8314603417
  H        16.1329774880       16.1686458697       14.0215667220
  H        16.9449219918       17.7107045971        9.2877728603
  H        52.3234898137       21.6692500741       14.2742235395
  H        52.0117397454       21.6998430081        1.5024358531
  H        49.0830538364       18.5965544322       13.1918194265
  H        13.2459536329       19.0145891085       15.9688787718
  H        29.9510456907       12.4448005052        4.2326263460
  H        28.8828435152       10.5140851137        5.4032910140
  H        25.2459157904       11.1998227278        3.2122323720
  H        26.3328577910       13.1203180545        2.0342732741
  H        27.1648337794       11.6707340503        6.7881583691
  H        30.9753122403       22.8065356224        3.9843497036
  H        31.9796115514       24.6896960773        5.2800819020
  H        35.7062253363       24.1048589318        3.2147260767
  H        34.6820809939       22.2301152253        1.9137258928
  H        33.6310324300       23.5928895880        6.7610442899
  H        25.7013359450        8.5894979631        3.4087759077
  H        30.8651163456       22.7394906470       11.9756884475
  H        31.8813146976       24.5992055978       10.6651781129
  H        35.5645634698       24.1025687516       12.8306029609
  H        34.5386742139       22.2323571678       14.1306162424
  H        33.5820871881       23.5808025647        9.2009995626
  H        40.5954143186       17.1160930301       12.6368943726
  H        32.5198483834       14.1509543699        0.2638262623
  H        29.9097326339       12.5377915286       11.9002151680
  H        28.8818478371       10.6384597335       10.6435268996
  H        25.2292762788       11.1624665084       12.8536868283
  H        26.2756722600       13.0510590908       14.1146948655
  H        27.1676642531       11.6851911677        9.2297645644
  H        33.3024846736       14.1931398149       14.4365458043
  H        33.4065230660       14.3874235343        1.6232289072
  H        32.1162797728       18.4968121716       13.1627631798
  H        30.2388778627       14.1846158766        0.0887801160
  H        16.1188120126        2.9610459711        4.1344492881
  H        14.9520983931        4.8171323680        5.3274122510
  H        17.3614890076        7.6848443717        3.2140276159
  H        18.5118853221        5.8181871281        2.0139872036
  H        16.7514671274        5.7372321204        6.7760438751
  H        44.8284798187       32.1403896596        3.9812605839
  H        45.9376550769       30.3412805724        5.3105270727
  H        43.6815145169       27.3784317768        3.1573042087
  H        42.5990532918       29.1903058980        1.8145851048
  H        44.2321940786       29.4384062054        6.7742726494
  H        14.8464670101        8.5423774002        3.3678898848
  H        44.9007986311       32.2329895991       11.9264436842
  H        46.0260404075       30.4121943499       10.6476263817
  H        43.7654433602       27.4830929687       12.8411413313
  H        42.6472982472       29.3163469216       14.1196984565
  H        44.2712462604       29.4714771284        9.2130882027
  H        35.0142619119       26.6198045495       12.6410467766
  H        36.6051650752       35.1339301237        0.1858730999
  H        16.1442040752        3.0120821618       11.8986735723
  H        14.9743229213        4.8550191246       10.6825967532
  H        17.3941193676        7.7468427887       12.7505823071
  H        18.5415427323        5.8932578398       13.9786565915
  H        16.7636710035        5.7538698182        9.2135460007
  H        36.2783881383       34.4824237674       14.2680414223
  H        36.3808590186       34.2090330701        1.5047757582
  H        40.5793726446       33.2012101068       13.1489493981
  H        17.4711450069        1.9470416080       15.9688195111
  H        28.7713232394       18.9802620233        4.4201035257
  H        28.8475430396       18.5673224335       11.8095927803
  H        32.2499080881       16.1465398133       11.6654260223
  H        31.1946834985       15.4705316056        4.4990007982
  H        29.0868955502       17.5192947260        7.4071994306
  H        29.5597115300       15.3287471326        6.6322376812
  H        30.7961633670       20.2194969847       10.8053455649
  H        32.6232912771       17.8347033005        9.1595045061
  H        27.3134164183       16.9854266420       10.6799634671
  H        18.8532702967        0.8689318740        4.3400993232
  H        40.5280020960       35.2290103527       11.9470490581
  H        42.3235364128       34.4183464796       11.5857661629
  H        22.0879733536        0.6913705962        4.3569737289
  H        11.5975245752       18.7130890203        4.3856061703
  H        52.2643239835       18.4260278180       11.6672300985
  H        49.2534196337       16.4737742961       11.5813751876
  H        10.1495457970       15.7985040524        4.2991048686
  H        50.8493114286       17.6880731619       11.9456737837
  H        10.0458141546       17.3946344927        4.0569161884
  H        20.2146941482        0.0021201233        4.0471240517
  H        39.1835620444       36.1245240461       11.6816793707
 Ni        30.9889047908       17.8840869739       10.9094175123
 Ni        31.1947694549       16.4071075983        8.0874668406
 Ni        31.1455036306       18.6278043751        7.4829573731
 Ni        30.1397948771       17.3040617238        5.3285938523
  O        10.6503084090       14.3630723159       13.4809960035
  O        12.6140600660       14.6551263429       14.5792085614
  O        49.1489725932       16.8454092913       15.9844397854
  O        50.3227255952       20.8748990953       13.5703329078
  O        48.3492976745       20.5923591736       14.6608264633
  O        11.0704472182       17.0231388052       14.4890280100
  O        50.3212474175       20.8816243081        2.4106579113
  O        48.3467729663       20.5863279800        1.3316449480
  O        49.5439217580       18.2487138207        2.0722806720
  O        12.3579893788       18.6220744608        0.0040560827
  O        48.6928672464       14.1484731036       14.7463412450
  O         8.2096278874       14.2101279246        1.3274632620
  O        10.7353278789       14.5063216120        2.6698915412
  O        12.5720917579       14.5813829818        1.3349463466
  O        22.8449127325        2.0431833602       13.4818582286
  O        21.6063529948        3.5928532771       14.5836583389
  O        42.0578890808       34.1369645899       15.9736825226
  O        37.9812111111       33.1355408837       13.5670810920
  O        39.2172164775       31.5747069822       14.6606179988
  O        20.3083270367        1.0391225550       14.4967897102
  O        38.0241945745       33.1845891336        2.4208847129
  O        39.2182463146       31.5827742121        1.3326437337
  O        40.6521363281       33.7690542996        2.0652121675
  O        18.2559570943        1.3760351523        0.0018267077
  O        44.6221851008       35.1005186133       14.7535747614
  O        24.2053445632        0.0000357058        1.3258934573
  O        22.7529012559        2.0572509311        2.5886834871
  O        21.6242725434        3.5958476422        1.3472938294
  O        27.4928255369       18.7473226586       13.4890639699
  O        26.7609000640       16.9299241662       14.6478081954
  O        30.6403962182       19.3469840782        0.0833959725
  O        33.5466441249       16.3383967669       13.5817945910
  O        34.2738210790       18.1670128164       14.7294260635
  O        29.5807241038       17.0270794470       14.5779142214
  O        33.5519313767       16.3407482080        2.4204765851
  O        34.2970199726       18.2394942471        1.4113999676
  O        31.6489696388       18.3127905487        2.1744123943
  O        30.3255918611       15.1521698843        0.0935562521
  O        28.5515455271       21.0273583699       14.8987670533
  O        28.5157546015       20.9487733798        1.4201177103
  O        27.4601786721       18.6762404879        2.6685726372
  O        26.6929426439       16.9281264155        1.4216372238
  O        13.1478074416       18.6936068312        2.5922310947
  O        13.9199153447       16.9164113807        1.4108518587
  O        50.5959921065       19.3490659610        0.0184987796
  O        47.6836035411       16.3268529588        2.4219262536
  O        46.9513745673       18.1754198105        1.3298724964
  O        11.0698269060       17.0145173780        1.4945206913
  O        47.6744262655       16.3357528572       13.6470052983
  O        46.9267148118       18.2354937851       14.6584445383
  O        49.5713659242       18.3096962902       13.9791955879
  O        10.3181772695       15.0976366804        0.0036948944
  O        52.6704936683       21.0277446919        1.2457926262
  O        12.1397993326       20.8879274114       14.6637446697
  O        13.1099590174       18.6124560741       13.3202737476
  O        13.9591159933       16.9863918461       14.6604508995
  O        29.9925578729       14.4366609915        2.7322870558
  O        28.0886797289       14.6524934436        1.5009186517
  O        32.1356207614       16.8507004008        0.0803377660
  O        30.9611013434       20.9421993830        2.4204050165
  O        32.9409076337       20.6019370242        1.3437553892
  O        29.5688092716       17.0734292613        1.5839913108
  O        30.8498752659       20.8814324059       13.6496184999
  O        32.8680529182       20.5857433024       14.6618269136
  O        31.6780555146       18.2543986541       13.9977499742
  O        28.2644452071       18.6282049442        0.0846177823
  O        32.4916155686       14.2119914825        1.3348714161
  O        32.4073981549       14.2203763365       14.8144091110
  O        29.9221186920       14.4441421823       13.4800434488
  O        28.0409219295       14.5857200263       14.7444575153
  O        17.8892933971        1.9661980498        2.6677969698
  O        18.9562660542        3.5269773263        1.4130588896
  O        39.1686130640       34.1384678262        0.0021869789
  O        43.2800544233       33.0590905471        2.3366440311
  O        42.0341545859       31.5066611404        1.2466001833
  O        20.3175660004        1.0365344072        1.4852632982
  O        43.2760870274       33.1822155823       13.5697083556
  O        42.0053222539       31.5839694495       14.5777321875
  O        40.5788759648       33.7746334750       13.9305468868
  O        22.3671843514        1.3844301881        0.0028957569
  O        36.6728313766       35.0996616804        1.2384561119
  O        16.4456754154        0.0640884844       14.6631072630
  O        17.9365519032        2.0432115488       13.3213077070
  O        18.9191699967        3.5930704223       14.6607895403
  O        29.7481845757       18.6878542952       12.1634919499
  O        29.7090311960       18.9012094189        4.1555834767
  O        31.3439081997       16.3290371017       11.9865861512
  O        31.2601136217       16.3469390997        4.0688217986
  O        32.0925727091       17.0753138259        9.5866463586
  O        27.8365608493       17.4354271058        9.9943402803
  O        30.4179298311       15.7668771446        6.4919671113
  O        32.9273881296       18.7653767366        7.9124814450
  O        30.8726845395       19.6485143079       10.0107418123
  O        29.3948552472       18.2501420858        6.8304064854
  O        39.4567772821       35.2438099103       11.9969125625
  O        19.1413194224        0.0044238891        3.9956079897
  O        41.9695410757       35.1726419149       12.0820810781
  O        21.6911153142       -0.0695230607        3.9009036114
  O        51.3660919989       18.6102815404       11.9988928382
  O        10.7512282123       18.7473109648        3.9090572236
  O        50.0794031968       16.4122609756       12.0866120340
  O         9.5242907718       16.4832338260        3.9963308917
 Zr         9.2973606211       16.0472849190       14.1781465981
 Zr        49.8345180503       16.0067763297        1.7517564765
 Zr        22.0733227107        0.0288269472       14.1838475453
 Zr        42.4608770532       35.1524828138        1.8058274545
 Zr        29.5936022300       19.0704919690       14.2988766791
 Zr        29.5784513428       19.1599570789        1.8919529505
 Zr        11.0356436962       19.0505876389        1.8302218927
 Zr        11.0443152949       19.1398270167       14.2423645695
 Zr        31.3491993642       16.0953822715        1.8910854018
 Zr        31.3913975517       16.0169096811       14.2672414477
 Zr        18.6010990596       -0.0020886849        1.7685538176
 Zr        18.5064884013       -0.0085106756       14.2084337487
 Zr        12.3044689441       16.3172143041       15.9878515670
 Zr        48.6127031164       18.8316104211        0.0130955438
 Zr        20.3148234727        2.4726569743       15.9850390135
 Zr        40.6432255083       32.6859245955       15.9728329364
 Zr        28.3505870451       16.3231002587        0.0941116756
 Zr        32.6325902578       18.8248996050        0.0622866686
  H        33.2052244490       19.6955386476        7.8880261279
  O        30.6732338954       14.7257585209        9.5008847215
  H        30.7968437035       15.1427910837       10.3894080718
  H        29.8272888760       14.2528698794        9.5520011891
  O        33.5515048004       16.6336080990        6.0810497614
  H        33.4388864537       17.4419436142        6.6335019229
  H        32.8555643084       16.7067625519        5.3995127827
  O        28.4345725487       19.9285276608        8.9081513108
  H        28.6232850285       19.5436774898        8.0180204017
  H        27.9683353105       19.1893294014        9.3623992754
  O        31.0521740006       20.3699295184        6.1674276918
  H        30.5997526850       19.9491464241        5.3784021495
  H        30.4372693196       21.0582849425        6.4699114896
  H        28.7618637677       17.1145147696       10.1037138514
  H        29.9568283686       19.7482191746        9.5720576951
