     586
 i =      161, E =     -4847.8453018469
  C        11.8587564863       14.0535237168       13.7364700945
  C        12.4562797083       12.8906241812       13.0181342763
  C        11.7045850276       12.1716819433       12.0764856366
  C        12.2809737596       11.1094821810       11.3841403543
  C        13.6215432214       10.7396873030       11.6118878600
  C        14.3546992479       11.4432793571       12.5853418226
  C        13.7818206867       12.5082639622       13.2768401868
  C        14.2610881887        9.6490223661       10.8385162942
  C        14.2564708848        9.6569875126        9.4168208040
  C        13.7433814142       10.7591586071        8.6629270706
  C        49.1268767704       21.2332079115       13.8744927754
  C        48.5501848811       22.4011500349       13.1474378241
  C        49.3002117034       23.0684672823       12.1664276762
  C        48.7332702275       24.1076163121       11.4332510166
  C        47.4027260551       24.5092571414       11.6618895976
  C        46.6717762647       23.8603871094       12.6754108257
  C        47.2342393192       22.8154898604       13.4047491870
  C        46.7724561167       25.5869288280       10.8646197908
  C        46.7615165732       25.5573559780        9.4428596911
  C        47.2615281296       24.4423076653        8.6993483647
  C        14.8604395871        8.5706642628        8.7035617249
  C        14.8917390051        8.5970153363       11.5151823116
  C        49.1133243814       21.2035171388        2.1504614953
  C        48.5280019709       22.3648643176        2.8776092877
  C        49.2672345571       23.0255766907        3.8705290321
  C        48.6909066639       24.0601458814        4.6019666329
  C        47.3605065834       24.4569621800        4.3636938996
  C        46.6401117694       23.8120966893        3.3401259455
  C        47.2136642515       22.7761859763        2.6083618103
  C        46.7220492976       25.5319081167        5.1547256350
  C        46.7337801255       25.5282261453        6.5764269809
  C        47.2492846058       24.4290323219        7.3327957528
  C        40.6338382002       17.1504298425        7.3238949223
  C        40.6520378205       17.1746717476        4.5151432784
  C        11.8830688511       14.0865595263        2.2906377177
  C        12.4723988213       12.9107592647        2.9948582716
  C        11.7148944078       12.1775357607        3.9209612832
  C        12.2815137917       11.0951023924        4.5893872031
  C        13.6203599943       10.7214663249        4.3575727848
  C        14.3583372832       11.4370594726        3.3967971739
  C        13.7928779772       12.5182130550        2.7241102316
  C        14.2539752128        9.6247044635        5.1279594493
  C        14.2527455647        9.6446899304        6.5497971390
  C        13.7428771058       10.7536392125        7.2968797444
  C        22.5122468695        3.2440454050       13.7484585144
  C        23.2284846208        4.3489127935       13.0495222253
  C        24.2253706237        4.0675350029       12.1036777822
  C        24.8540076811        5.1062187095       11.4218216906
  C        24.5014296376        6.4483333124       11.6660313336
  C        23.5328591174        6.7213163592       12.6490404279
  C        22.8995394669        5.6843626206       13.3291879124
  C        25.1078995083        7.5540332468       10.8898341459
  C        25.0765862566        7.5480359067        9.4684154855
  C        24.3713264501        6.5501023826        8.7232994342
  C        38.3043856287       31.9284626932       13.8424214965
  C        37.5804705158       30.8368165193       13.1305506366
  C        36.6247106658       31.1359548326       12.1476647874
  C        36.0144491466       30.1123299735       11.4279032560
  C        36.3450783579       28.7644263065       11.6695485481
  C        37.2710956384       28.4728847034       12.6888292000
  C        37.8856395072       29.4950263512       13.4071212434
  C        35.7498093076       27.6688348329       10.8721075244
  C        35.7835712099       27.6821763232        9.4508655023
  C        36.4852952256       28.6870217450        8.7130679726
  C        25.6988048765        8.6177488524        8.7475881383
  C        25.7080853460        8.6277455543       11.5597987850
  C        38.3285549383       31.9621952371        2.1601209648
  C        37.6076459476       30.8874901516        2.8992521734
  C        36.6814372504       31.1925119364        3.9082168779
  C        36.0750612612       30.1709962319        4.6364960363
  C        36.3809813407       28.8197434737        4.3787763146
  C        37.2833303204       28.5248217283        3.3386386494
  C        37.8918498420       29.5426195963        2.6117122695
  C        35.7803947377       27.7172038326        5.1629537738
  C        35.7989969119       27.7069682328        6.5846127906
  C        36.4924692867       28.6990822328        7.3465633197
  C        46.1357213321       26.6208253355        7.2865723324
  C        46.0880155949       26.5802251527        4.4786764577
  C        22.4598753261        3.2557927850        2.2629544462
  C        23.1519192343        4.3651813630        2.9869648106
  C        24.1541309394        4.0801833245        3.9278737763
  C        24.7802272262        5.1110260890        4.6244960679
  C        24.4241946568        6.4563939712        4.4025297910
  C        23.4448560652        6.7347284723        3.4303131553
  C        22.8140922562        5.7040871187        2.7343172521
  C        25.0541730763        7.5549976868        5.1766404550
  C        25.0493355964        7.5481665828        6.5994367218
  C        24.3568316018        6.5511214683        7.3566835683
  C        26.6236233777       17.8605761212       13.7820651796
  C        25.3147517497       17.9006902600       13.0563592300
  C        25.0552438871       18.8953508021       12.1001206081
  C        23.8432669635       18.9135276568       11.4118463061
  C        22.8532958612       17.9399168978       11.6582246659
  C        23.1094162401       16.9677535837       12.6433494030
  C        24.3236928170       16.9445167782       13.3289364589
  C        21.5794832193       17.9244596159       10.8942257763
  C        21.5788554887       17.8994942654        9.4718050662
  C        22.7839480817       17.7728186778        8.7109826426
  C        34.4240147271       17.2300160684       13.8755115023
  C        35.7197250267       17.1775232205       13.1387645386
  C        35.9460778745       16.1872155518       12.1703950646
  C        37.1314600609       16.1734804882       11.4414453035
  C        38.1231630500       17.1475846129       11.6658844922
  C        37.9023978361       18.1166729510       12.6619249981
  C        36.7130440559       18.1362112597       13.3864188438
  C        39.3805027229       17.1545763324       10.8855565546
  C        39.3760173586       17.1691180212        9.4647787469
  C        38.1680017073       17.2916493117        8.7081284012
  C        20.3322748508       17.9173629246        8.7632722516
  C        20.3545479730       17.9300487230       11.5765633706
  C        34.4732389354       17.2501830681        2.1837815895
  C        35.7754210671       17.1762484069        2.9090734328
  C        35.9928797852       16.1894103200        3.8825621675
  C        37.1783878540       16.1740998447        4.6122151621
  C        38.1743873054       17.1439120607        4.3856582170
  C        37.9632657700       18.1052908308        3.3803801485
  C        36.7753847531       18.1263407545        2.6546403186
  C        39.4215273999       17.1637043690        5.1802106018
  C        39.3970427662       17.1749962326        6.6006947259
  C        38.1787239813       17.2928625979        7.3415869056
  C        35.1766589402       26.6235775479        7.2889194953
  C        35.1889682093       26.6473474608        4.4800778962
  C        26.5716290068       17.8240733245        2.3320858533
  C        25.2575134238       17.8696345597        3.0385457878
  C        24.9946546964       18.8695334201        3.9868742390
  C        23.7764176303       18.8934783312        4.6597447549
  C        22.7920946345       17.9167690810        4.4084277779
  C        23.0492139161       16.9418968120        3.4274563177
  C        24.2680268081       16.9162707776        2.7525526908
  C        21.5287079605       17.8955418512        5.1815726439
  C        21.5530887033       17.8826378649        6.6030823115
  C        22.7717231289       17.7643508629        7.3447122121
  C        14.0466533152       17.8281456498        2.2945423597
  C        15.3507273127       17.8831830446        3.0207583483
  C        15.6073663226       18.8833035744        3.9716394406
  C        16.8162661572       18.9017355408        4.6648614103
  C        17.8029711030       17.9229346619        4.4293592659
  C        17.5509982217       16.9470853990        3.4464960059
  C        16.3415145728       16.9239067651        2.7550515173
  C        19.0723955280       17.9036513505        5.1979459401
  C        19.0716477601       17.8975317981        6.6204472713
  C        17.8649263344       17.7976618702        7.3820547724
  C        46.8065446955       17.2199627515        2.1642774380
  C        45.5180343947       17.1632179343        2.9114811309
  C        45.3111966228       16.1902991175        3.9013466846
  C        44.1303871391       16.1792180228        4.6387286794
  C        43.1279210663       17.1410510737        4.4069929191
  C        43.3321026296       18.0935873786        3.3907398946
  C        44.5135612486       18.1087244712        2.6546811564
  C        41.8754038999       17.1586867699        5.1948140512
  C        41.8808561776       17.1610375625        6.6163260887
  C        43.0895579600       17.2552780852        7.3756870914
  C        20.3186685056       17.9075522722        7.3284028716
  C        20.2963958033       17.8860569963        4.5153134905
  C        46.7859510147       17.2319716718       13.8842910041
  C        45.4826009040       17.1301617745       13.1692454561
  C        45.2617955683       16.1363797884       12.2039004776
  C        44.0737820499       16.1165700868       11.4775656321
  C        43.0780238770       17.0873461149       11.7002307011
  C        43.2886672582       18.0499978264       12.7048358916
  C        44.4778173139       18.0764222356       13.4258904319
  C        41.8329632620       17.1178166999       10.9027131509
  C        41.8593050239       17.1381319202        9.4820953389
  C        43.0793967386       17.2416886043        8.7421715682
  C        46.1534446520       26.6372047182        8.7211169884
  C        46.1623689816       26.6559697355       11.5307595748
  C        14.0459935908       17.8314884725       13.7035754560
  C        15.3675047387       17.9045567589       13.0134534503
  C        15.6422049558       18.9178537304       12.0829079952
  C        16.8716216110       18.9529517198       11.4285055073
  C        17.8543437478       17.9739441197       11.6787595614
  C        17.5866699647       16.9900470751       12.6479215759
  C        16.3592537881       16.9542785479       13.3056412184
  C        19.1218049519       17.9461286153       10.9098121702
  C        19.0973445693       17.9184110129        9.4883660418
  C        17.8774472686       17.8072349515        8.7480495890
  C        28.8027689960       14.0910843862        2.3950217487
  C        28.1881121431       12.9208085887        3.0855487491
  C        28.9105503137       12.1802772418        4.0328043886
  C        28.3104834338       11.1051855871        4.6832093996
  C        26.9742617243       10.7480916030        4.4116211867
  C        26.2732381244       11.4700306611        3.4290043792
  C        26.8711457623       12.5448177396        2.7760786112
  C        26.3058392795        9.6680723407        5.1726897485
  C        26.2974382292        9.6928867885        6.5937481338
  C        26.8055261894       10.8040464764        7.3392484334
  C        32.1833735856       21.2367952612        2.1458021097
  C        32.7802746840       22.4019687446        2.8633195969
  C        32.0428857571       23.0689501394        3.8533732063
  C        32.6189635847       24.1047715638        4.5818599909
  C        33.9484803850       24.5011850321        4.3408164205
  C        34.6682452329       23.8528910743        3.3194805886
  C        34.0945614615       22.8114538038        2.5930326164
  C        34.5828240991       25.5732230536        5.1403081393
  C        34.5859524933       25.5388168503        6.5616945759
  C        34.0887111976       24.4182381823        7.2994748064
  C        25.6889141502        8.6147903957        7.3130994298
  C        25.6677845852        8.6178327404        4.4999468649
  C        32.1120891201       21.2240873357       13.8704539848
  C        32.7122163597       22.3655654180       13.1196463439
  C        31.9912395846       23.0125675112       12.1045624256
  C        32.5781712757       24.0398143194       11.3698289729
  C        33.9003907804       24.4493791821       11.6313797501
  C        34.6050525683       23.8136698155       12.6713925578
  C        34.0225629043       22.7810052112       13.4015575527
  C        34.5446858812       25.5290938531       10.8492864967
  C        34.5665479932       25.5166965428        9.4275584522
  C        34.0792289295       24.4080655311        8.6660607635
  C        40.6227244385       17.1430056165        8.7575483454
  C        40.6019051292       17.1456122444       11.5674145020
  C        28.7405945582       14.0685967358       13.8179490983
  C        28.1325985295       12.9210095390       13.0778976594
  C        28.8778411888       12.2128212800       12.1219547507
  C        28.2985644903       11.1579027777       11.4196210792
  C        26.9596030443       10.7825234220       11.6523840057
  C        26.2324507147       11.4776928290       12.6361294184
  C        26.8092239806       12.5348071704       13.3378065145
  C        26.3191707717        9.6898691249       10.8810816955
  C        26.3066604069        9.7032850646        9.4598087994
  C        26.8084087303       10.8096626424        8.7049883142
  C        18.1353998861        3.1809251183        2.3222445320
  C        17.4061031635        4.2782110404        3.0208725419
  C        16.3904527140        3.9998775645        3.9484649910
  C        15.7427453837        5.0398755556        4.6119650367
  C        16.0946226964        6.3835894817        4.3722194017
  C        17.0838849286        6.6530930855        3.4083265040
  C        17.7329393663        5.6157298832        2.7432702106
  C        15.4703478573        7.4913114018        5.1352692491
  C        15.4856584354        7.4906452844        6.5569823090
  C        16.1871281735        6.4969831729        7.3101697161
  C        42.9459173972       31.8595048284        2.0780054339
  C        43.6463099193       30.7718708044        2.8219866397
  C        44.5920134636       31.0931819709        3.8078982761
  C        45.1977247967       30.0876280216        4.5555511347
  C        44.8711210470       28.7345900380        4.3408214020
  C        43.9450693358       28.4202548124        3.3278256447
  C        43.3362368328       29.4254021774        2.5798076292
  C        45.4887657313       27.6553007336        5.1439751471
  C        45.4929260821       27.6809054747        6.5656643558
  C        44.8057863708       28.6889151078        7.3122895563
  C        14.8567063120        8.5631502986        7.2693396825
  C        14.8751157358        8.5631170967        4.4566904800
  C        42.9464495570       31.9614218515       13.8038575626
  C        43.6916016897       30.8853127825       13.0902972417
  C        44.6564779309       31.1912002952       12.1182710165
  C        45.2779915370       30.1716035365       11.4005521851
  C        44.9539212746       28.8213119472       11.6379307703
  C        44.0200813504       28.5236538047       12.6483742749
  C        43.3918241693       29.5404328887       13.3605392770
  C        45.5630354562       27.7239349270       10.8527021698
  C        45.5333906189       27.7173059081        9.4314086667
  C        44.8270246084       28.7075187176        8.6784751458
  C        35.1678428729       26.6116425405        8.7234384438
  C        35.1477801078       26.5918978096       11.5326415796
  C        18.1484987731        3.2468722657       13.7015212531
  C        17.4298281173        4.3437529340       12.9923103571
  C        16.4147122051        4.0524769802       12.0686492009
  C        15.7664182212        5.0831155167       11.3932478470
  C        16.1209883074        6.4283558663       11.6160660110
  C        17.1122255740        6.7117331292       12.5734719889
  C        17.7598841726        5.6828201252       13.2532541130
  C        15.4905782853        7.5240855466       10.8436012622
  C        15.4965521119        7.5075098972        9.4224662621
  C        16.1933030024        6.5057943962        8.6757741088
  H        10.6724456348       12.4657931053       11.8994854422
  H        11.6946932116       10.5509627309       10.6576248923
  H        15.3917340693       11.1687013085       12.7670678709
  H        14.3512939132       13.0715541436       14.0122189086
  H        13.3763554609       11.6312728640        9.1962486244
  H        50.3229314429       22.7484579763       11.9816808706
  H        49.3197550019       24.6229150262       10.6756946190
  H        45.6422880571       24.1611632959       12.8586049799
  H        46.6632395948       22.2902847399       14.1668732851
  H        47.6301068742       23.5759335247        9.2410110974
  H        14.8719782332        8.5882231629       12.6034858954
  H        50.2872752846       22.7027191933        4.0654628903
  H        49.2693008105       24.5756121217        5.3654643662
  H        45.6107393069       24.1094177457        3.1510068181
  H        46.6528475596       22.2540891184        1.8367533656
  H        47.6081019398       23.5519308896        6.8018917375
  H        40.6580664421       17.1401965010        3.4274028763
  H        48.6870676511       14.0950089155       15.7949039578
  H        10.6813887394       12.4665238602        4.0982975694
  H        11.6897261679       10.5246262967        5.3020221264
  H        15.3937974339       11.1592530130        3.2109108877
  H        14.3652294966       13.0876650269        1.9956550948
  H        13.3760793041       11.6222597624        6.7582294398
  H        47.9302341850       14.2182235484        1.7160302560
  H        47.7800436316       14.3736253116       14.4900983774
  H        49.0843767209       18.5527785961        2.8726471855
  H        10.4161496750       14.1342976655        0.0037790469
  H        24.4849903622        3.0285645883       11.9131063416
  H        25.6270053972        4.8878351837       10.6881832075
  H        23.2533347151        7.7546373940       12.8437687860
  H        22.1293912154        5.8855274303       14.0698343235
  H        23.8109665650        5.7933150082        9.2644831874
  H        36.3848141650       32.1780471597       11.9500049556
  H        35.2727459005       30.3476909095       10.6678129714
  H        37.5337929981       27.4349529972       12.8825538639
  H        38.6263910388       29.2777679643       14.1729541015
  H        37.0487869659       29.4383726852        9.2586052412
  H        25.7447193652        8.6106600414       12.6475597522
  H        36.4583874270       32.2358897500        4.1194885931
  H        35.3518744758       30.4121999035        5.4123967759
  H        37.5303512669       27.4853938302        3.1330240616
  H        38.6119103662       29.3204982719        1.8279911706
  H        37.0624845647       29.4592774716        6.8202821810
  H        46.1093813593       26.5876425407        3.3906401092
  H        44.6681789697       35.1161074894       15.8088136101
  H        24.4332942942        3.0422688487        4.0946876908
  H        25.5613195620        4.8831018775        5.3466607745
  H        23.1583839193        7.7688695593        3.2500848065
  H        22.0421911905        5.9159079849        1.9980549507
  H        23.7846778444        5.7956319984        6.8259898623
  H        44.9536083800       34.3902633393        1.7002142859
  H        44.9015004264       34.2066708863       14.4855341892
  H        40.6655643744       33.2087635170        2.8580550753
  H        23.1504458320        1.9576109170        0.0105869923
  H        25.8170800719       19.6503602372       11.9173869480
  H        23.6459109248       19.6923789731       10.6781128090
  H        22.3571564152       16.2072588432       12.8430277962
  H        24.5315282355       16.1807287742       14.0748068741
  H        23.7238194876       17.6514931096        9.2416042292
  H        35.1806927851       15.4321899700       12.0059301774
  H        37.3078889130       15.3997482918       10.6973793051
  H        38.6621051448       18.8755154212       12.8376494399
  H        36.5230370604       18.8980531205       14.1388918515
  H        37.2285325367       17.4158594542        9.2396273593
  H        20.3615719955       17.9734446515       12.6643029898
  H        35.2158815505       15.4487240563        4.0590656574
  H        37.3488013131       15.4057526336        5.3633221566
  H        38.7271061936       18.8593354994        3.2019452682
  H        36.5889703107       18.8851781048        1.8983077308
  H        37.2477656473       17.4178326227        6.7962223855
  H        35.1525842942       26.6776540921        3.3927515181
  H        28.5003270944       21.0802235726       15.8809493727
  H        25.7572897107       19.6204023846        4.1795463268
  H        23.5722699090       19.6733642898        5.3901973987
  H        22.2972868855       16.1813075821        3.2273102649
  H        24.4827511956       16.1521704158        2.0092572740
  H        23.7025848771       17.6372092297        6.7999482608
  H        28.9954254494       21.7277587297        1.7523876279
  H        29.1964977844       21.7218549252       14.5691900217
  H        32.1420206452       18.5888413434        2.9580898045
  H        27.4065773416       19.0697502276        0.0882011808
  H        14.8490803957       19.6419674470        4.1521557575
  H        17.0113468928       19.6836225150        5.3957075136
  H        18.3022112497       16.1834505047        3.2554355395
  H        16.1356390629       16.1570791781        2.0120504642
  H        16.9223562272       17.6814583838        6.8550241367
  H        46.0926373574       15.4568403591        4.0857095792
  H        43.9691890420       15.4174183463        5.3982795680
  H        42.5655589998       18.8439506671        3.2086681239
  H        44.6890763154       18.8582562814        1.8866213985
  H        44.0314368831       17.3696981418        6.8467759795
  H        20.2900164425       17.9192780185        3.4272787019
  H        46.0368209164       15.3948148669       12.0239867746
  H        43.9046036638       15.3462088802       10.7283690247
  H        42.5242394626       18.8034077525       12.8830734218
  H        44.6631560658       18.8389706183       14.1783078200
  H        44.0135416411       17.3445219879        9.2867485084
  H        46.1991267375       26.6824908618       12.6182088623
  H        52.7412578904       21.0626843408        0.1998258151
  H        14.8824004987       19.6717759679       11.8889696310
  H        17.0833633218       19.7416343310       10.7097021794
  H        18.3366571181       16.2279030247       12.8493298113
  H        16.1374864153       16.1814599170       14.0375847418
  H        16.9442763526       17.6983842399        9.2925234832
  H        52.3227236187       21.6733526392       14.2890495138
  H        52.0133978510       21.7021643729        1.5008272121
  H        49.0678264984       18.6079813856       13.1989079248
  H        13.2477237261       19.0161367007       15.9723011290
  H        29.9396260705       12.4602825568        4.2463155238
  H        28.8726191663       10.5287972454        5.4147842121
  H        25.2405935358       11.2041706459        3.2124998097
  H        26.3286140006       13.1235249809        2.0324835390
  H        27.1683006229       11.6724264618        6.7977124533
  H        31.0225335474       22.7485864309        4.0479870135
  H        32.0427304666       24.6205845732        5.3467467378
  H        35.6972536210       24.1503423466        3.1281159077
  H        34.6555361312       22.2845398751        1.8245588191
  H        33.7361956760       23.5476793063        6.7535683006
  H        25.6955142102        8.5992773650        3.4118772349
  H        30.9732568895       22.6920157393       11.8963488468
  H        32.0112152263       24.5433361645       10.5898995406
  H        35.6291042252       24.1177760245       12.8780878381
  H        34.5714210289       22.2679069660       14.1877781186
  H        33.7211325380       23.5290582368        9.1944305206
  H        40.5930696536       17.1064249796       12.6550142174
  H        32.5179983733       14.1572155442        0.2476099060
  H        29.9163791813       12.4963481890       11.9596168718
  H        28.8832339490       10.6021550557       10.6894023109
  H        25.1970190140       11.1996097820       12.8220214015
  H        26.2452007998       13.0875155785       14.0855596611
  H        27.1714666672       11.6825108340        9.2395898163
  H        33.2963507737       14.1893817573       14.4300776904
  H        33.4080522241       14.3905669587        1.6139862883
  H        32.0520234213       18.5106620074       13.0561197479
  H        30.2251697016       14.1946478486        0.0847762501
  H        16.1184099689        2.9633742463        4.1349119558
  H        14.9533047469        4.8204933611        5.3276341522
  H        17.3662100040        7.6859734070        3.2150908492
  H        18.5148333198        5.8183403167        2.0152598998
  H        16.7536098745        5.7395932111        6.7766649317
  H        44.8284291421       32.1402560121        3.9819614556
  H        45.9377294919       30.3413446803        5.3113732121
  H        43.6821646824       27.3782099228        3.1578869402
  H        42.5994030785       29.1900740084        1.8153481828
  H        44.2303792128       29.4366371491        6.7739757479
  H        14.8513065272        8.5463319673        3.3684725332
  H        44.9002481031       32.2338673757       11.9270384328
  H        46.0251080096       30.4127854352       10.6475076136
  H        43.7628151259       27.4839477676       12.8396652905
  H        42.6450390753       29.3176454776       14.1187054985
  H        44.2684303281       29.4703279091        9.2130838814
  H        35.1001969086       26.6070367271       12.6198715846
  H        36.6049593678       35.1338518476        0.1858815443
  H        16.1436963951        3.0128945287       11.8988529613
  H        14.9741485512        4.8562563254       10.6831071161
  H        17.3956030483        7.7472140822       12.7504932595
  H        18.5426412065        5.8932461974       13.9781516188
  H        16.7646118232        5.7554615782        9.2142129459
  H        36.2781872548       34.4824751254       14.2679631610
  H        36.3804343781       34.2093881131        1.5051568229
  H        40.5801731749       33.2023114693       13.1483536553
  H        17.4706464637        1.9470593118       15.9689829659
  H        28.7952643820       19.0145416755        4.3600534569
  H        29.7267063983       19.9511523338       11.6929285972
  H        32.2883575975       16.4578834566       11.8643328586
  H        30.8910904644       15.3901982851        4.2982564666
  H        28.2643909094       17.3677992529        6.8349774909
  H        29.1224985311       15.1915176353        6.6033635525
  H        31.6586614076       20.2282183658        9.2981108575
  H        32.8766373496       17.5591713709        9.9428527706
  H        29.0115246170       16.9085478014        9.4242576629
  H        18.8531418034        0.8689212575        4.3403831288
  H        40.5278453413       35.2291485329       11.9469970238
  H        42.3237377838       34.4186197477       11.5855474858
  H        22.0877857127        0.6920321934        4.3566691612
  H        11.5968272490       18.7131280995        4.3877762433
  H        52.2649570576       18.4312221672       11.6720398249
  H        49.2552116359       16.4770343939       11.5794098429
  H        10.1504194319       15.7981683162        4.2977735452
  H        50.8502007692       17.6924150480       11.9491550433
  H        10.0462445707       17.3945065477        4.0570547028
  H        20.2143340411        0.0021716421        4.0471675370
  H        39.1834841647       36.1244643113       11.6814842896
 Ni        30.9906709859       18.2301538996       10.7429765816
 Ni        31.0724248710       16.1838292898        8.0775526593
 Ni        29.9287185221       18.9900167248        7.8275321085
 Ni        30.0968860363       17.3317461231        5.2508126299
  O        10.6499735730       14.3651261722       13.4807048988
  O        12.6131902255       14.6575186320       14.5787946512
  O        49.1481138557       16.8458804208       15.9845935131
  O        50.3503095498       20.9357389383       13.6429246743
  O        48.3486089287       20.5933275030       14.6607892459
  O        11.0517326555       17.0538586104       14.4955735887
  O        50.3211159589       20.8816323843        2.4119451837
  O        48.3467957377       20.5867972729        1.3322839945
  O        49.5438654286       18.2484226936        2.0733777564
  O        12.3591393704       18.6246358020        0.0048428405
  O        48.6932480499       14.1485998650       14.7461776662
  O         8.2098925139       14.2103663094        1.3276181156
  O        10.7354159313       14.5067390906        2.6694114149
  O        12.5718182746       14.5828102646        1.3335662461
  O        22.8446050445        2.0430041070       13.4820834302
  O        21.6056152677        3.5923702580       14.5844411004
  O        42.0582195303       34.1373089787       15.9738706195
  O        37.9819137261       33.1366968707       13.5670953710
  O        39.2186666752       31.5762783230       14.6620002526
  O        20.3082919259        1.0394071650       14.4968935420
  O        38.0247039012       33.1858023561        2.4201906081
  O        39.2197466326       31.5843361205        1.3309162890
  O        40.6523222487       33.7693911298        2.0653805789
  O        18.2554210517        1.3760150331        0.0018585551
  O        44.6222360794       35.1005278240       14.7536179857
  O        24.2053654822        0.0000557407        1.3259465456
  O        22.7529798900        2.0580179954        2.5890233020
  O        21.6242664951        3.5960154465        1.3474481224
  O        27.4934610824       18.7507011341       13.4936295165
  O        26.7668289844       16.9306691790       14.6523744330
  O        30.6676355299       19.4035277502        0.0561253747
  O        33.5512099466       16.3389801743       13.5798043393
  O        34.2767778476       18.1679468909       14.7277945874
  O        29.5747904096       17.0605296081       14.5632110971
  O        33.6142872797       16.3326047379        2.4198943127
  O        34.3035188340       18.2484418843        1.4084241556
  O        31.6528597349       18.3119727516        2.1672228152
  O        30.3249832021       15.1607129452        0.0869805893
  O        28.5543276123       21.0350716163       14.8296468619
  O        28.5137862809       20.9556834876        1.4105480495
  O        27.4600463323       18.6772123473        2.6670065654
  O        26.6946038314       16.9298554167        1.4191980455
  O        13.1491059408       18.6927762928        2.5927111368
  O        13.9194041816       16.9161662443        1.4100910608
  O        50.5964355916       19.3503026356        0.0255437887
  O        47.6835173678       16.3270367126        2.4224235104
  O        46.9524696113       18.1760933477        1.3291473147
  O        11.0699167580       17.0155137653        1.4947693527
  O        47.6755384779       16.3356706492       13.6477933811
  O        46.9282629203       18.2359789193       14.6601190593
  O        49.5687939805       18.3177145540       13.9771514270
  O        10.3186860149       15.1001363230        0.0022116973
  O        52.6707873334       21.0278710580        1.2469320973
  O        12.1468634641       20.8911780728       14.6681131026
  O        13.1086595823       18.6135318776       13.3203942442
  O        13.9572797451       16.9870013312       14.6603721152
  O        29.9903113487       14.4391666481        2.7319106854
  O        28.0880145867       14.6542395264        1.4983960394
  O        32.1369798605       16.8575003889        0.0689451600
  O        30.9673981882       20.9498175691        2.4158821933
  O        32.9474748786       20.5972071788        1.3408416221
  O        29.5706990969       17.0770389243        1.5843631059
  O        30.8784746761       20.9535873369       13.6588080620
  O        32.8804423231       20.5839428110       14.6609019826
  O        31.6727856146       18.2494997471       13.9275855190
  O        28.2943017932       18.6767433638        0.0809017317
  O        32.4921282221       14.2137060493        1.3310371687
  O        32.4066270859       14.2195158263       14.8189427123
  O        29.9121733271       14.4373831001       13.4825663750
  O        28.0363389362       14.5896302852       14.7500073346
  O        17.8892030182        1.9666362494        2.6679326768
  O        18.9562275160        3.5271301476        1.4130680777
  O        39.1686930457       34.1388563745        0.0022902477
  O        43.2802544371       33.0589847036        2.3367958406
  O        42.0346332760       31.5064387325        1.2467241239
  O        20.3176439050        1.0367271374        1.4853636890
  O        43.2760499839       33.1824508544       13.5697623540
  O        42.0052952413       31.5840612035       14.5778647371
  O        40.5789687167       33.7748723833       13.9305568367
  O        22.3672260803        1.3845454691        0.0030475163
  O        36.6727288311       35.0997822447        1.2384313865
  O        16.4455168743        0.0640880847       14.6630963867
  O        17.9364572841        2.0433379398       13.3212728552
  O        18.9190111384        3.5931120467       14.6608256219
  O        29.7789813879       19.0564399168       12.0759675140
  O        29.7337599342       18.9847048744        4.0775808377
  O        31.3826146550       16.1226388272       12.0021835644
  O        31.3072760781       16.2495529056        4.0739770872
  O        32.9950086431       16.8445936113        9.2326646835
  O        29.8258364326       17.3653569129        9.1585694362
  O        29.9874826870       15.6132946342        6.4882167089
  O        31.2984743047       17.8712409636        6.8326610653
  O        30.8375966785       19.7266711867        9.4127252662
  O        28.6003478428       18.1793000074        6.4178833562
  O        39.4567440553       35.2438209825       11.9968649730
  O        19.1411254296        0.0044738833        3.9956771656
  O        41.9696237162       35.1726963297       12.0820699970
  O        21.6912812737       -0.0693086078        3.9009895619
  O        51.3651753453       18.6142995272       12.0003214070
  O        10.7511309178       18.7471575453        3.9100238991
  O        50.0796513107       16.4128262161       12.0866497884
  O         9.5245529689       16.4830538692        3.9963089616
 Zr         9.2971731317       16.0527426680       14.1774090230
 Zr        49.8366758192       16.0066425645        1.7513932712
 Zr        22.0730543221        0.0294748490       14.1840266025
 Zr        42.4607904327       35.1531553167        1.8059999777
 Zr        29.6155276710       19.0844929434       14.2420245670
 Zr        29.5862985490       19.1892462383        1.8605035026
 Zr        11.0383768427       19.0519693932        1.8328516488
 Zr        11.0442650713       19.1548512332       14.2458491974
 Zr        31.3644692947       16.1070087182        1.8640175964
 Zr        31.3741956340       16.0032451698       14.2232671517
 Zr        18.6009653497       -0.0016736966        1.7684550156
 Zr        18.5061716014       -0.0083435628       14.2085674354
 Zr        12.3023880770       16.3236208003       15.9851732498
 Zr        48.6171712977       18.8333931748        0.0153430403
 Zr        20.3148169232        2.4729261241       15.9853110171
 Zr        40.6432730817       32.6867325652       15.9730943664
 Zr        28.3504590463       16.3489914563        0.0861278837
 Zr        32.6220892468       18.8340903030        0.0341220856
  H        32.1669176273       18.2876958213        6.7110450753
  O        30.9750965359       14.8077264928        9.7402925999
  H        31.0352434942       15.2738694116       10.6596783578
  H        30.2879007617       14.1272262792        9.8123466216
  O        32.6227843375       15.3108305377        6.8311381624
  H        33.4145031198       15.8597966452        6.9668816016
  H        32.2860746867       15.5594582074        5.9388834727
  O        27.8854426140       20.1424166693        8.1513957950
  H        27.6896063237       19.4595649319        7.4567454820
  H        27.4797556748       19.8225364568        8.9742034404
  O        30.3294251957       20.5780494365        6.4044444585
  H        30.1836727038       20.1493565191        5.5124008507
  H        29.6030920843       21.2158341222        6.5110835776
  H        33.2082641698       16.0411161407        9.7407512799
  H        32.4609995442       18.4760247270       11.2295813576
