     586
 i =      387, E =     -4847.8199739764
  C        11.8588803940       14.0535536666       13.7364332865
  C        12.4564539781       12.8907291969       13.0180300620
  C        11.7045760162       12.1713669368       12.0768507629
  C        12.2809705322       11.1091612545       11.3845375351
  C        13.6217427544       10.7398611998       11.6118691416
  C        14.3551981698       11.4439435544       12.5847375814
  C        13.7822755337       12.5089553857       13.2761960281
  C        14.2612268895        9.6491093327       10.8385464962
  C        14.2565312985        9.6569830356        9.4168554200
  C        13.7433620128       10.7591243064        8.6629857041
  C        49.1270494676       21.2331605958       13.8745672807
  C        48.5503054743       22.4012323524       13.1475468185
  C        49.3002980540       23.0685617737       12.1665607814
  C        48.7333319910       24.1077013772       11.4333651771
  C        47.4028024260       24.5092954908       11.6620137642
  C        46.6719094674       23.8604644544       12.6755801242
  C        47.2344026145       22.8155840021       13.4049167781
  C        46.7724712864       25.5869426152       10.8647623626
  C        46.7612867307       25.5572873300        9.4430109794
  C        47.2613165763       24.4422674587        8.6994870632
  C        14.8604424902        8.5706234341        8.7036116571
  C        14.8920061936        8.5971932319       11.5152272041
  C        49.1133657463       21.2034294893        2.1505007625
  C        48.5279768863       22.3648639863        2.8777242318
  C        49.2671671051       23.0254867763        3.8707046394
  C        48.6908898778       24.0600960462        4.6021588198
  C        47.3605494829       24.4569931305        4.3638368291
  C        46.6401874805       23.8122338341        3.3401981302
  C        47.2137029260       22.7762972988        2.6084325946
  C        46.7220515591       25.5319381749        5.1548575415
  C        46.7335605281       25.5281877605        6.5765598052
  C        47.2490601183       24.4290054980        7.3329400564
  C        40.6360203538       17.1567844307        7.3254463390
  C        40.6543243212       17.1836765552        4.5164367771
  C        11.8831376672       14.0866236200        2.2906626415
  C        12.4726336273       12.9110078364        2.9950875562
  C        11.7149729360       12.1772996828        3.9206860594
  C        12.2816553593       11.0948855075        4.5890839564
  C        13.6207180115       10.7217605912        4.3577221657
  C        14.3589604135       11.4379079491        3.3975749362
  C        13.7934081775       12.5190441775        2.7248943574
  C        14.2542825246        9.6249065724        5.1280501247
  C        14.2528715946        9.6447361924        6.5498856240
  C        13.7428987931       10.7536446384        7.2969446391
  C        22.5129812748        3.2445205580       13.7481248553
  C        23.2301034983        4.3490211360       13.0494333540
  C        24.2271522785        4.0672013943       12.1037162083
  C        24.8568464881        5.1054365060       11.4220052394
  C        24.5053602729        6.4480176224       11.6657102016
  C        23.5366661691        6.7213744672       12.6486457253
  C        22.9023370960        5.6849046016       13.3287950166
  C        25.1122192582        7.5536495870       10.8890975533
  C        25.0801859158        7.5476259504        9.4675266043
  C        24.3760999272        6.5488436213        8.7224521564
  C        38.3033011522       31.9290999517       13.8432623595
  C        37.5755668626       30.8384841291       13.1323216542
  C        36.6177044302       31.1405278160       12.1523744522
  C        36.0029083062       30.1190108272       11.4333715067
  C        36.3308534044       28.7701882055       11.6731468054
  C        37.2591722045       28.4756348660       12.6894152766
  C        37.8782759490       29.4958649453       13.4068672879
  C        35.7304567637       27.6770722961       10.8756861066
  C        35.7640627924       27.6905811132        9.4543271303
  C        36.4708440013       28.6924857514        8.7172447690
  C        25.7004059960        8.6183905904        8.7463961584
  C        25.7128441635        8.6274733025       11.5586306682
  C        38.3289612246       31.9622477849        2.1605949810
  C        37.6082405535       30.8874826755        2.9012201812
  C        36.6814649385       31.1934198301        3.9093118277
  C        36.0741793422       30.1726790633        4.6381165551
  C        36.3798817645       28.8210574363        4.3819786242
  C        37.2834788387       28.5251354642        3.3431708746
  C        37.8927893928       29.5423045151        2.6157543022
  C        35.7760066492       27.7196936866        5.1658137430
  C        35.7878545512       27.7119893274        6.5876555989
  C        36.4817176338       28.7029881298        7.3507710266
  C        46.1354633128       26.6207586535        7.2867255176
  C        46.0881970453       26.5803649234        4.4788301092
  C        22.4607017894        3.2558640528        2.2628690431
  C        23.1541466122        4.3646037162        2.9860802029
  C        24.1562610379        4.0787152174        3.9269253594
  C        24.7836078501        5.1089416105        4.6233066440
  C        24.4289707336        6.4546900871        4.4013278674
  C        23.4499366501        6.7338875335        3.4289769345
  C        22.8179433995        5.7038909004        2.7331430805
  C        25.0593983257        7.5530877147        5.1754432068
  C        25.0532869305        7.5470041509        6.5982914283
  C        24.3616249113        6.5496030295        7.3557745655
  C        26.6188294524       17.8598529427       13.7742700463
  C        25.3128762972       17.9180315446       13.0539734563
  C        25.0765304186       18.8884337752       12.0671793985
  C        23.8648297902       18.9144794785       11.3799585699
  C        22.8524097405       17.9734913225       11.6576911900
  C        23.0854433289       17.0268849915       12.6745071378
  C        24.2989669693       16.9944699370       13.3586469283
  C        21.5808844810       17.9559636513       10.8920743378
  C        21.5811673687       17.9293314017        9.4690320015
  C        22.7868770783       17.8114706129        8.7078691884
  C        34.4290078556       17.2242181431       13.8803278555
  C        35.7255484348       17.1684168512       13.1470977356
  C        35.9328489110       16.2047521975       12.1479890492
  C        37.1184333173       16.1919962970       11.4198011074
  C        38.1271597657       17.1417871959       11.6711262222
  C        37.9240779422       18.0836817206       12.6973807522
  C        36.7361499435       18.1014908932       13.4236797976
  C        39.3821259058       17.1531408439       10.8879910080
  C        39.3778070896       17.1736420898        9.4667395900
  C        38.1708754250       17.3019940932        8.7091746635
  C        20.3336925359       17.9380914628        8.7612837327
  C        20.3551877700       17.9552647723       11.5740592839
  C        34.4762967385       17.2510949172        2.1824924302
  C        35.7786086770       17.1813327513        2.9088986564
  C        36.0015986996       16.1895660995        3.8761761263
  C        37.1861177524       16.1772498225        4.6076122676
  C        38.1765747914       17.1542741783        4.3875322262
  C        37.9603424245       18.1207613201        3.3884990848
  C        36.7728172048       18.1391600797        2.6618233711
  C        39.4240565272       17.1738455831        5.1816356338
  C        39.3997141836       17.1840589287        6.6018800230
  C        38.1817795320       17.3044112524        7.3426474297
  C        35.1583708336       26.6322118980        7.2913986656
  C        35.1871127904       26.6484963046        4.4825839402
  C        26.5714850327       17.8251072738        2.3294329075
  C        25.2577148911       17.8727804765        3.0364537386
  C        24.9918424118       18.8828673227        3.9738949896
  C        23.7739996547       18.9109073165        4.6475756280
  C        22.7921738942       17.9285119922        4.4065763671
  C        23.0519947555       16.9443125038        3.4359539861
  C        24.2708286735       16.9141563158        2.7610211350
  C        21.5284854105       17.9100152152        5.1793482432
  C        21.5535332282       17.9040523794        6.6007807607
  C        22.7727729665       17.7984630529        7.3419892253
  C        14.0468361475       17.8284392548        2.2944793894
  C        15.3505480011       17.8842505429        3.0203170971
  C        15.6068682123       18.8856261975        3.9700508880
  C        16.8158217169       18.9054485517        4.6628661380
  C        17.8030356670       17.9268984417        4.4282030980
  C        17.5512543434       16.9495942740        3.4467180875
  C        16.3416714068       16.9249780521        2.7555347723
  C        19.0726783637       17.9106549111        5.1961010702
  C        19.0723126447       17.9079383012        6.6186477951
  C        17.8661078760       17.8046954206        7.3804872184
  C        46.8071378443       17.2203422984        2.1643345580
  C        45.5188753633       17.1648721893        2.9122402431
  C        45.3108705383       16.1913967051        3.9012016498
  C        44.1303538869       16.1818107059        4.6390797545
  C        43.1299046160       17.1459498380        4.4085944371
  C        43.3353184934       18.0992404421        3.3934127168
  C        44.5163731461       18.1127372567        2.6568241542
  C        41.8775530956       17.1651936103        5.1963833223
  C        41.8829979704       17.1663054131        6.6178511183
  C        43.0919243935       17.2574425152        7.3771521415
  C        20.3192861009       17.9249627283        7.3264711566
  C        20.2964359596       17.8938433282        4.5129421650
  C        46.7865602522       17.2315543459       13.8850176544
  C        45.4830247972       17.1286015637       13.1705363725
  C        45.2630152281       16.1342262004       12.2057461040
  C        44.0752483172       16.1136491174       11.4791051589
  C        43.0796011826       17.0844081575       11.7014136570
  C        43.2891808258       18.0473877151       12.7058024621
  C        44.4780825077       18.0745167591       13.4270842460
  C        41.8349414139       17.1154810089       10.9036273395
  C        41.8613094509       17.1389100312        9.4831663528
  C        43.0815945074       17.2417541182        8.7435775944
  C        46.1531925556       26.6371320387        8.7212796393
  C        46.1625722093       26.6560550789       11.5309165804
  C        14.0466372909       17.8322096642       13.7031627666
  C        15.3677745930       17.9078850070       13.0127856531
  C        15.6389894226       18.9216181970       12.0814738946
  C        16.8679982826       18.9608188183       11.4266375808
  C        17.8546685461       17.9857705099       11.6769555493
  C        17.5902879871       17.0011257591       12.6464558143
  C        16.3630710180       16.9610883338       13.3046801939
  C        19.1224979707       17.9635416117       10.9079167902
  C        19.0985702790       17.9338311458        9.4864052585
  C        17.8791704589       17.8161726534        8.7465350664
  C        28.8055243955       14.0924370416        2.3962825405
  C        28.1929709968       12.9195415882        3.0840400515
  C        28.9111844956       12.1885063378        4.0418394926
  C        28.3117842602       11.1125035416        4.6913943742
  C        26.9800422020       10.7459612978        4.4098611577
  C        26.2839823639       11.4583682383        3.4167263665
  C        26.8814445540       12.5332892319        2.7637357902
  C        26.3102899540        9.6668837010        5.1710253108
  C        26.2974902356        9.6938943841        6.5921193187
  C        26.7984116937       10.8084875280        7.3371868794
  C        32.1831875400       21.2377252635        2.1436124887
  C        32.7814662140       22.4019767308        2.8624845632
  C        32.0352479176       23.0829575408        3.8360525918
  C        32.6090077897       24.1194467146        4.5653957250
  C        33.9449858871       24.5030797183        4.3412996434
  C        34.6748011052       23.8408664413        3.3361800008
  C        34.1030808476       22.7984765265        2.6090473819
  C        34.5750136211       25.5772801682        5.1420387196
  C        34.5673782782       25.5479539656        6.5635048123
  C        34.0593463682       24.4318513463        7.3013268112
  C        25.6908002305        8.6149483085        7.3117910840
  C        25.6742853412        8.6150499348        4.4985960550
  C        32.1053278541       21.2233303978       13.8734832086
  C        32.6979433664       22.3745379364       13.1286034568
  C        31.9597658108       23.0439505799       12.1397914727
  C        32.5426708193       24.0708661427       11.4001675769
  C        33.8767096996       24.4601429803       11.6339883892
  C        34.5965466062       23.8052924464       12.6510233140
  C        34.0188519310       22.7717045864       13.3841479039
  C        34.5181688910       25.5418005349       10.8512015488
  C        34.5374068503       25.5307446174        9.4298162993
  C        34.0447924194       24.4245625543        8.6680149062
  C        40.6244968805       17.1469818209        8.7591485491
  C        40.6044294476       17.1408179176       11.5685702903
  C        28.7437090736       14.0709579143       13.8147017166
  C        28.1364901261       12.9240318268       13.0737265571
  C        28.8753576924       12.2284505021       12.1035182451
  C        28.2959322209       11.1721423586       11.4034513785
  C        26.9630222831       10.7837906859       11.6503669088
  C        26.2425615274       11.4674496013       12.6472293288
  C        26.8194691516       12.5251066466       13.3477783082
  C        26.3217911214        9.6910961099       10.8797680931
  C        26.3057025870        9.7055898131        9.4582935257
  C        26.8005115551       10.8146718571        8.7028493079
  C        18.1354692882        3.1811281016        2.3222865331
  C        17.4062705228        4.2783318470        3.0208925419
  C        16.3906140315        4.0000197833        3.9485159607
  C        15.7429174812        5.0400280972        4.6119713882
  C        16.0948375714        6.3837635815        4.3722661559
  C        17.0841368888        6.6532364752        3.4083803609
  C        17.7331988732        5.6158669605        2.7433394831
  C        15.4705564459        7.4914778113        5.1353082945
  C        15.4857098876        7.4906563452        6.5570191859
  C        16.1872006827        6.4970037927        7.3101963102
  C        42.9459606991       31.8595387064        2.0780082052
  C        43.6463627620       30.7719438325        2.8219978484
  C        44.5917717751       31.0933223447        3.8081717594
  C        45.1974753014       30.0877918924        4.5558878153
  C        44.8712232566       28.7346918134        4.3409313945
  C        43.9455805217       28.4203449624        3.3275453375
  C        43.3367624338       29.4254391042        2.5794835495
  C        45.4887835062       27.6553687426        5.1441177332
  C        45.4927757440       27.6809108264        6.5658143381
  C        44.8056225510       28.6889062303        7.3124616549
  C        14.8567578208        8.5631394741        7.2693965274
  C        14.8754643973        8.5633803253        4.4567291829
  C        42.9465085657       31.9615492398       13.8038940277
  C        43.6917936306       30.8854496059       13.0905126673
  C        44.6561149255       31.1913585165       12.1179412243
  C        45.2776404705       30.1717566651       11.4002241795
  C        44.9541779377       28.8214056469       11.6381785878
  C        44.0210921804       28.5237772508       12.6493477766
  C        43.3928505601       29.5405420764       13.3615002341
  C        45.5631155093       27.7239878267       10.8529010349
  C        45.5332337964       27.7172778784        9.4316009536
  C        44.8268439348       28.7074827228        8.6786571574
  C        35.1446342805       26.6226399298        8.7259961630
  C        35.1256190158       26.6012989258       11.5356972795
  C        18.1485611771        3.2470814498       13.7015034592
  C        17.4299630640        4.3438507355       12.9923308272
  C        16.4148419974        4.0525859848       12.0686298157
  C        15.7665568054        5.0832359043       11.3932761079
  C        16.1211836290        6.4284812335       11.6161000516
  C        17.1124124330        6.7118543505       12.5735337395
  C        17.7600675670        5.6829279300       13.2532802158
  C        15.4907260026        7.5241803464       10.8436448953
  C        15.4966069560        7.5074943603        9.4225079792
  C        16.1933688738        6.5057914315        8.6758005017
  H        10.6722926976       12.4651521211       11.9001975399
  H        11.6946065159       10.5503183376       10.6583447223
  H        15.3924795322       11.1698975262       12.7659540266
  H        14.3519875485       13.0727280332       14.0110534141
  H        13.3763557012       11.6312241269        9.1963416508
  H        50.3230249841       22.7485686607       11.9818378359
  H        49.3198556557       24.6230073100       10.6758511942
  H        45.6424696719       24.1613242037       12.8588379572
  H        46.6635292552       22.2903734943       14.1671209809
  H        47.6300853399       23.5759962629        9.2411699123
  H        14.8724270128        8.5885474072       12.6035443214
  H        50.2871932361       22.7025717123        4.0656336699
  H        49.2693581271       24.5755034178        5.3656333171
  H        45.6108948490       24.1097168291        3.1509762502
  H        46.6530046025       22.2542852895        1.8366855960
  H        47.6080864506       23.5520091454        6.8020198998
  H        40.6604777883       17.1499831584        3.4286904561
  H        48.6872177651       14.0950435231       15.7949576658
  H        10.6813018567       12.4659056342        4.0976527898
  H        11.6897948606       10.5240518357        5.3013709715
  H        15.3946728950       11.1606507720        3.2121906567
  H        14.3659609024       13.0889718772        1.9969328256
  H        13.3761751992       11.6222920608        6.7582871037
  H        47.9302513596       14.2186893318        1.7159709902
  H        47.7801836320       14.3740589723       14.4903237706
  H        49.0850233401       18.5528559258        2.8728783587
  H        10.4164010454       14.1342415063        0.0037973261
  H        24.4863140391        3.0281320627       11.9130463010
  H        25.6298947895        4.8862230861       10.6886531264
  H        23.2576951251        7.7548724169       12.8433162190
  H        22.1322193912        5.8870564441       14.0692258441
  H        23.8165856549        5.7914308775        9.2636290611
  H        36.3798419642       32.1833576905       11.9561502297
  H        35.2598419143       30.3569931537       10.6753975212
  H        37.5202882270       27.4370331016       12.8815899870
  H        38.6207547562       29.2763137492       14.1703842602
  H        37.0355213021       29.4424198149        9.2634994611
  H        25.7516101628        8.6094610090       12.6463255737
  H        36.4582569523       32.2370277699        4.1193294799
  H        35.3501194327       30.4150785053        5.4128437710
  H        37.5307796656       27.4855754504        3.1385705405
  H        38.6134280926       29.3193433333        1.8327996320
  H        37.0558067419       29.4606693165        6.8252271733
  H        46.1098545901       26.5879301665        3.3908092067
  H        44.6683878348       35.1162276119       15.8087915122
  H        24.4344354972        3.0405718856        4.0938927307
  H        25.5645321179        4.8802613149        5.3454108873
  H        23.1646651870        7.7683336002        3.2485612122
  H        22.0463228558        5.9166229611        1.9968374229
  H        23.7903517253        5.7932694856        6.8253489165
  H        44.9543495597       34.3908534300        1.7005280867
  H        44.9023023516       34.2070328066       14.4854544298
  H        40.6662649917       33.2092633830        2.8582655750
  H        23.1505120167        1.9579185604        0.0105020305
  H        25.8513658312       19.6182306892       11.8444750239
  H        23.6969361038       19.6713135375       10.6167749782
  H        22.3159504038       16.2906446366       12.8977687823
  H        24.4893962643       16.2482821808       14.1265586509
  H        23.7323888575       17.7078662504        9.2319221076
  H        35.1513770300       15.4755599506       11.9485911494
  H        37.2789775047       15.4373720304       10.6529961204
  H        38.6964452356       18.8240876013       12.8951082593
  H        36.5607222541       18.8428264682       14.1998351892
  H        37.2320776299       17.4281682488        9.2410653138
  H        20.3617653056       18.0008174312       12.6617052377
  H        35.2301823039       15.4409386834        4.0441377744
  H        37.3615708977       15.4047669592        5.3534325386
  H        38.7202673617       18.8799127463        3.2150880231
  H        36.5822242053       18.9015434642        1.9101122877
  H        37.2519140984       17.4321830865        6.7960064392
  H        35.1577115779       26.6752768442        3.3949718355
  H        28.5045768299       21.0755088628       15.8735110236
  H        25.7519079712       19.6403418982        4.1526198554
  H        23.5661683315       19.6987987022        5.3687474521
  H        22.3017534929       16.1798987491        3.2441195442
  H        24.4873305757       16.1425227963        2.0260355923
  H        23.7058456485       17.6790931118        6.7996277679
  H        28.9928196527       21.7264503623        1.7551978188
  H        29.1866385930       21.7231592960       14.5576265029
  H        32.1289001069       18.5956232373        2.9549915598
  H        27.3986556987       19.0592042317        0.0770165547
  H        14.8483676526       19.6442493223        4.1497326580
  H        17.0109435774       19.6882250303        5.3927355750
  H        18.3028390533       16.1860749911        3.2565487916
  H        16.1360002448       16.1570776454        2.0135542797
  H        16.9238210987       17.6840345219        6.8539437428
  H        46.0910606249       15.4562966294        4.0843299810
  H        43.9678657154       15.4194895072        5.3978339372
  H        42.5701928700       18.8513414160        3.2126581932
  H        44.6933060146       18.8626060964        1.8894451795
  H        44.0339677867       17.3708140262        6.8483195063
  H        20.2896752164       17.9228337357        3.4247628275
  H        46.0385297769       15.3930389933       12.0264698175
  H        43.9063519467       15.3430144627       10.7301177527
  H        42.5242798947       18.8004609091       12.8833371215
  H        44.6632843886       18.8372210392       14.1793620166
  H        44.0158544447       17.3417696576        9.2884653927
  H        46.1996791321       26.6827187062       12.6183423004
  H        52.7414503746       21.0627836068        0.1998573203
  H        14.8767019747       19.6729651598       11.8874508425
  H        17.0766691285       19.7500192632       10.7075374625
  H        18.3430036221       16.2417122036       12.8480784985
  H        16.1445120952       16.1875253807       14.0368880327
  H        16.9465459892       17.7042698021        9.2913097158
  H        52.3234997783       21.6735896076       14.2887546845
  H        52.0138904139       21.7025334267        1.5008582201
  H        49.0684561833       18.6078816477       13.1987017806
  H        13.2480636967       19.0158553251       15.9722749803
  H        29.9352865191       12.4786064864        4.2657335019
  H        28.8708677286       10.5435948927        5.4311073698
  H        25.2549108013       11.1854960964        3.1920942105
  H        26.3420754074       13.1046275229        2.0122011930
  H        27.1557460071       11.6790162432        6.7954501597
  H        31.0103352087       22.7712724004        4.0180666187
  H        32.0256093494       24.6469459241        5.3168032271
  H        35.7089796020       24.1283792609        3.1580780138
  H        34.6711269468       22.2611087735        1.8531093650
  H        33.7045743543       23.5627187426        6.7542577849
  H        25.7044350912        8.5947886603        3.4106153188
  H        30.9285494499       22.7434122038       11.9658182167
  H        31.9641634014       24.5947223956       10.6420407556
  H        35.6282888486       24.0961090495       12.8375762592
  H        34.5795038303       22.2436536667       14.1520021994
  H        33.6831888091       23.5481649026        9.1985537449
  H        40.5966471661       17.0961752757       12.6559482349
  H        32.5162484982       14.1566629711        0.2568735641
  H        29.9076929842       12.5235811854       11.9243538742
  H        28.8766255111       10.6263095688       10.6626749862
  H        25.2115882473       11.1805522483       12.8442123032
  H        26.2598459300       13.0686155874       14.1054713213
  H        27.1571082447       11.6903761960        9.2370260347
  H        33.2976174429       14.1860655795       14.4308422394
  H        33.4087519954       14.3927403395        1.6139067935
  H        32.1175795064       18.4924934672       13.0919051331
  H        30.2232154386       14.1936532269        0.0819473702
  H        16.1185130579        2.9635370298        4.1349578205
  H        14.9534949496        4.8207000983        5.3276717799
  H        17.3665872966        7.6861093683        3.2152286124
  H        18.5151765368        5.8185702166        2.0154363573
  H        16.7538358435        5.7397125639        6.7767205390
  H        44.8280238447       32.1404090108        3.9824019409
  H        45.9372963592       30.3416072036        5.3118734196
  H        43.6831501010       27.3782475387        3.1572896945
  H        42.6003575905       29.1900880360        1.8146517110
  H        44.2303619950       29.4367585402        6.7741636651
  H        14.8518509546        8.5467720337        3.3684967988
  H        44.8994885409       32.2340363439       11.9262331565
  H        46.0243977687       30.4129837788       10.6468186366
  H        43.7645872192       27.4840201137       12.8413006833
  H        42.6467345897       29.3177807755       14.1202937770
  H        44.2683734959       29.4704022102        9.2132440834
  H        35.0810104534       26.6142386424       12.6230722298
  H        36.6050980881       35.1340494731        0.1858154724
  H        16.1437698574        3.0130206027       11.8988242255
  H        14.9742938609        4.8564493489       10.6831020116
  H        17.3958767628        7.7473255084       12.7505291353
  H        18.5428765400        5.8934149287       13.9781065536
  H        16.7648366375        5.7555623994        9.2142208435
  H        36.2781923145       34.4828938196       14.2677316579
  H        36.3805953734       34.2093530301        1.5048837001
  H        40.5807914983       33.2029030696       13.1481294890
  H        17.4708821441        1.9476465712       15.9690480388
  H        28.8317461797       19.0338160701        4.3607956397
  H        28.9120420836       18.8737570107       11.6452593678
  H        32.3887559200       16.1727597681       11.7704804977
  H        30.9367571125       15.4532179848        4.3910345771
  H        28.1415321464       17.7773987382        6.7966914774
  H        29.2011225600       15.3996239146        6.5639681022
  H        31.3613825242       21.0430367190        9.3432354482
  H        32.7683535873       17.7744579084        9.1211759061
  H        29.0220017119       19.9402336223        8.4016722239
  H        18.8533694331        0.8690684777        4.3402352356
  H        40.5279226733       35.2290182895       11.9468247355
  H        42.3247843541       34.4196225125       11.5848496086
  H        22.0876773738        0.6919316134        4.3569086526
  H        11.5967173312       18.7130955964        4.3878992813
  H        52.2652971217       18.4314324966       11.6721694541
  H        49.2553296650       16.4768828706       11.5793376133
  H        10.1500870588       15.7982871745        4.2981543994
  H        50.8505179563       17.6924947394       11.9490581497
  H        10.0462760624       17.3945918448        4.0569899023
  H        20.2146944603        0.0022616835        4.0471049871
  H        39.1837159023       36.1246736910       11.6815648043
 Ni        30.8155564919       17.4502358590       10.5029863424
 Ni        31.2416763021       16.2251688765        7.9126094746
 Ni        30.0517321697       19.1223585321        7.7419017159
 Ni        30.1838176628       17.4229937833        5.3256724590
  O        10.6500040320       14.3651003480       13.4807393951
  O        12.6132263214       14.6575167125       14.5787759119
  O        49.1481465722       16.8458188635       15.9846027314
  O        50.3503296758       20.9357546887       13.6428266302
  O        48.3486027553       20.5933585814       14.6607662119
  O        11.0520504821       17.0536958667       14.4956358020
  O        50.3210338466       20.8816998728        2.4120265337
  O        48.3467546534       20.5868190813        1.3322748399
  O        49.5439601606       18.2483920180        2.0733272024
  O        12.3593147306       18.6246322623        0.0047424618
  O        48.6932961034       14.1485748102       14.7462111761
  O         8.2099327165       14.2104059161        1.3276443004
  O        10.7354099419       14.5067311529        2.6694133988
  O        12.5718384699       14.5828231729        1.3335752844
  O        22.8446489546        2.0430558908       13.4820468354
  O        21.6060134619        3.5925549230       14.5840965040
  O        42.0583176804       34.1375194252       15.9738628153
  O        37.9816886207       33.1371318831       13.5670761951
  O        39.2181403328       31.5759511970       14.6615179361
  O        20.3084479860        1.0395801064       14.4970251859
  O        38.0245892315       33.1855552741        2.4203644322
  O        39.2194777662       31.5840013503        1.3311230209
  O        40.6523245317       33.7694395465        2.0653069127
  O        18.2554158423        1.3762388058        0.0018748845
  O        44.6221940420       35.1005752971       14.7536393983
  O        24.2053800448        0.0000565212        1.3258964717
  O        22.7529197235        2.0577578952        2.5889001875
  O        21.6244687433        3.5960125740        1.3476884066
  O        27.5027999058       18.7469881983       13.4792140918
  O        26.7633478593       16.9377696377       14.6466110432
  O        30.6505098582       19.3520359125        0.0114982830
  O        33.5529151899       16.3373398851       13.5830496515
  O        34.2759564016       18.1682747374       14.7274396651
  O        29.5794401837       17.0547114433       14.5623977237
  O        33.6204243011       16.3325624244        2.4176801859
  O        34.3039317282       18.2498028865        1.4079669609
  O        31.6526120379       18.3128957924        2.1586662841
  O        30.3255924890       15.1594913874        0.0890922409
  O        28.5542242855       21.0306452432       14.8239213158
  O        28.5135763236       20.9560476585        1.4068382054
  O        27.4591652170       18.6778059633        2.6638683941
  O        26.6945780610       16.9291011625        1.4174017534
  O        13.1487459822       18.6928011684        2.5925143164
  O        13.9193534737       16.9161888328        1.4100856266
  O        50.5967335953       19.3503078725        0.0255300956
  O        47.6834568148       16.3270135762        2.4224571436
  O        46.9526497936       18.1761622126        1.3289620179
  O        11.0701479908       17.0153663601        1.4946783683
  O        47.6759181549       16.3355204231       13.6479488288
  O        46.9283987248       18.2359346588       14.6602347742
  O        49.5690140242       18.3176997396       13.9771989500
  O        10.3188141346       15.1000708310        0.0021907150
  O        52.6708036216       21.0278528766        1.2469220040
  O        12.1468805664       20.8912007328       14.6681794886
  O        13.1082843551       18.6135994617       13.3204516746
  O        13.9577282542       16.9873167496       14.6598969982
  O        29.9910725547       14.4431972400        2.7357641529
  O        28.0888264469       14.6543086555        1.4988008808
  O        32.1379841624       16.8530363870        0.0697776016
  O        30.9677009824       20.9507705902        2.4112060068
  O        32.9466384601       20.5969360963        1.3380035785
  O        29.5704646820       17.0733277318        1.5834172041
  O        30.8757591270       20.9433409550       13.6503371569
  O        32.8785030232       20.5847324903       14.6595438786
  O        31.6767416191       18.2509102555       13.9218792020
  O        28.2897696926       18.6735152508        0.0681345962
  O        32.4925133193       14.2137931499        1.3332239124
  O        32.4063544361       14.2202491328       14.8161629863
  O        29.9159165370       14.4414981954       13.4812244568
  O        28.0382209866       14.5902298036       14.7482591231
  O        17.8892702776        1.9666696229        2.6679069857
  O        18.9562760963        3.5271099381        1.4130313300
  O        39.1685993071       34.1388307329        0.0023114721
  O        43.2802154493       33.0589758476        2.3368166159
  O        42.0345345198       31.5064901545        1.2467447993
  O        20.3177569374        1.0368940490        1.4851336882
  O        43.2760389734       33.1825097540       13.5697599867
  O        42.0052656235       31.5840785027       14.5778845464
  O        40.5789517129       33.7749915498       13.9306380122
  O        22.3673454683        1.3847187231        0.0030247618
  O        36.6728598296       35.0997994521        1.2384072220
  O        16.4456255917        0.0642634010       14.6631435087
  O        17.9365420215        2.0433804765       13.3212880392
  O        18.9191330429        3.5930699056       14.6608376621
  O        29.8250055667       18.8254734320       11.9831525021
  O        29.7459860909       18.9863141666        4.0078578668
  O        31.4363972328       16.1925507911       11.9876349823
  O        31.3877203466       16.2660456457        4.0761160497
  O        32.3752742523       16.9310035846        9.4033341317
  O        29.7437808210       17.5165179907        8.9204568249
  O        30.1050923800       15.6729956709        6.3441538974
  O        31.4302257200       17.9674519164        6.8238372841
  O        31.3872289168       20.0724924244        9.4078513710
  O        28.7315898114       18.3974576445        6.3376962583
  O        39.4567543095       35.2439163562       11.9968630429
  O        19.1412872272        0.0045576484        3.9955862643
  O        41.9695491818       35.1727227891       12.0820388992
  O        21.6912114123       -0.0693434643        3.9010568915
  O        51.3653628066       18.6143053426       12.0002651004
  O        10.7510522324       18.7471266548        3.9100472986
  O        50.0797051357       16.4127269709       12.0866423395
  O         9.5243449650       16.4831297176        3.9963184825
 Zr         9.2979742152       16.0526789902       14.1774831786
 Zr        49.8373841403       16.0065806714        1.7513040534
 Zr        22.0734577527        0.0301912116       14.1837747129
 Zr        42.4611391681       35.1537525978        1.8061808248
 Zr        29.6081048629       19.0720451768       14.1946457829
 Zr        29.5801377921       19.1852209191        1.8363957392
 Zr        11.0391201942       19.0517719752        1.8329674719
 Zr        11.0451250501       19.1547004786       14.2455857023
 Zr        31.3598148524       16.1021367665        1.8871761179
 Zr        31.3805772077       16.0067575442       14.2367202040
 Zr        18.6014045343       -0.0007637003        1.7684005069
 Zr        18.5066278913       -0.0073349004       14.2086837514
 Zr        12.3035306737       16.3237910011       15.9850716615
 Zr        48.6182103175       18.8334133598        0.0152944115
 Zr        20.3153959399        2.4739980092       15.9852374211
 Zr        40.6440184076       32.6875501662       15.9730092920
 Zr        28.3542224588       16.3451328301        0.0887104118
 Zr        32.6174656540       18.8265885295        0.0395535140
  H        32.2770611601       18.3773549960        6.5838326404
  O        30.9613204903       14.6469218147        9.4844034840
  H        31.0812725136       15.0611385934       10.3806935072
  H        30.1148147548       14.1739843676        9.5369873507
  O        32.7853059856       15.3144922079        6.7393179579
  H        33.6520905334       15.7044658471        6.9411540130
  H        32.5538242028       15.6116908208        5.8263718035
  O        26.5156007965       19.9992766258        8.1591290338
  H        26.3095760681       19.8005584129        7.2309198643
  H        27.4996348792       19.9416886089        8.1790285692
  O        30.5441755581       20.6589078730        6.0890553733
  H        30.3317953915       20.1256766501        5.2632393698
  H        29.7907466007       21.2666154627        6.1703996289
  H        28.7875859713       17.3913743657        9.0482279621
  H        30.8968789973       19.8607430072       10.2412039781
