     586
 i =      191, E =     -4847.8131683146
  C        11.8587397272       14.0536476604       13.7365007150
  C        12.4563375326       12.8907276504       13.0181118107
  C        11.7044857818       12.1714364609       12.0768709556
  C        12.2808141875       11.1091906513       11.3845434277
  C        13.6215499495       10.7398072234       11.6118947072
  C        14.3549627546       11.4437693223       12.5848631315
  C        13.7820899203       12.5088063756       13.2763270449
  C        14.2609840735        9.6490366939       10.8385650837
  C        14.2562276463        9.6568465878        9.4168608158
  C        13.7429281220       10.7588969377        8.6629364086
  C        49.1270338747       21.2331391374       13.8746860803
  C        48.5502515597       22.4012042371       13.1475651945
  C        49.3003120884       23.0687070436       12.1667300984
  C        48.7333592211       24.1078907865       11.4335371781
  C        47.4027514456       24.5092974881       11.6620202537
  C        46.6717176407       23.8601895503       12.6753177965
  C        47.2342100563       22.8152879037       13.4046114035
  C        46.7724391969       25.5869717459       10.8647659560
  C        46.7613354771       25.5574126339        9.4430005491
  C        47.2613773631       24.4423607641        8.6995267212
  C        14.8601276884        8.5704699617        8.7036126627
  C        14.8917393286        8.5970936392       11.5152162904
  C        49.1132013312       21.2033696091        2.1505626300
  C        48.5278008923       22.3647742182        2.8777855015
  C        49.2671814628       23.0257807436        3.8703771915
  C        48.6908310790       24.0604207225        4.6017804922
  C        47.3602937870       24.4568556244        4.3638647316
  C        46.6397313208       23.8115693329        3.3406777255
  C        47.2132436604       22.7755959059        2.6089758529
  C        46.7218142903       25.5318478946        5.1548921315
  C        46.7334489923       25.5281675221        6.5766017398
  C        47.2490927024       24.4290457824        7.3329748758
  C        40.6223543392       17.1350282083        7.3129261321
  C        40.6306690286       17.1267482931        4.5032106340
  C        11.8831793230       14.0866740301        2.2906429400
  C        12.4724298660       12.9107820598        2.9948393600
  C        11.7146471412       12.1771789880        3.9204238979
  C        12.2812050685       11.0947332395        4.5889130769
  C        13.6202479896       10.7214864654        4.3576641985
  C        14.3585697277       11.4375186239        3.3974807971
  C        13.7931739530       12.5186916787        2.7247329336
  C        14.2537319028        9.6245775376        5.1279862617
  C        14.2523853412        9.6444400966        6.5498233636
  C        13.7423317423       10.7533048016        7.2968944035
  C        22.5127601325        3.2449077313       13.7467891759
  C        23.2294137516        4.3489428849       13.0456607966
  C        24.2267276919        4.0657018385       12.1005053529
  C        24.8572345478        5.1025640547       11.4172182772
  C        24.5066165736        6.4459838740       11.6580943818
  C        23.5370194352        6.7208378584       12.6399283127
  C        22.9019133600        5.6856472160       13.3217831597
  C        25.1174248438        7.5500133979       10.8813581027
  C        25.0932981512        7.5412974349        9.4594492519
  C        24.3900822051        6.5432654446        8.7126838766
  C        38.2997085970       31.9274627747       13.8458285610
  C        37.5628701460       30.8367388903       13.1422262694
  C        36.5987320526       31.1399770052       12.1685044334
  C        35.9738962944       30.1193802555       11.4565553082
  C        36.2978660409       28.7692528897       11.6954482901
  C        37.2314666431       28.4735113707       12.7066287754
  C        37.8603649319       29.4930104825       13.4176366677
  C        35.6917506739       27.6782468090       10.8972144174
  C        35.7305009634       27.6927340859        9.4755265405
  C        36.4445488293       28.6921965559        8.7416170308
  C        25.7208198963        8.6086494383        8.7391320632
  C        25.7160407358        8.6248739844       11.5511801167
  C        38.3309866065       31.9603212565        2.1653948354
  C        37.6161495352       30.8853385622        2.9146390925
  C        36.6857482776       31.1921123065        3.9195110464
  C        36.0781697790       30.1730005075        4.6512438291
  C        36.3858006698       28.8201180243        4.4025409298
  C        37.2972544257       28.5232269277        3.3705048969
  C        37.9068452738       29.5389698762        2.6401156960
  C        35.7725342525       27.7204404886        5.1843956030
  C        35.7716289798       27.7145101137        6.6070291576
  C        36.4636385963       28.7030513747        7.3751795795
  C        46.1353938859       26.6207800227        7.2867353779
  C        46.0877995579       26.5801633768        4.4788448551
  C        22.4628809353        3.2557035349        2.2619146842
  C        23.1625678799        4.3626608827        2.9823017952
  C        24.1685480950        4.0727023774        3.9178656279
  C        24.8029438780        5.1001054836        4.6119931146
  C        24.4514992343        6.4471163387        4.3932713852
  C        23.4685297124        6.7305459919        3.4261881881
  C        22.8295584151        5.7032704055        2.7323828280
  C        25.0879896544        7.5422754891        5.1672999825
  C        25.0792606366        7.5364340506        6.5900402089
  C        24.3814358220        6.5421443676        7.3459777717
  C        26.6161389713       17.8566138376       13.7798330149
  C        25.3121438892       17.9020539797       13.0520531075
  C        25.0737543884       18.8758774152       12.0690727904
  C        23.8606130811       18.9003615175       11.3835042232
  C        22.8523492763       17.9529863296       11.6567443437
  C        23.0903968305       17.0000830905       12.6654541826
  C        24.3042322400       16.9709031962       13.3500365648
  C        21.5787375419       17.9399797645       10.8945090208
  C        21.5777229424       17.9069619260        9.4726453401
  C        22.7809965294       17.7536754184        8.7128704437
  C        34.4424631573       17.2013655410       13.9111770948
  C        35.7314755949       17.1605400065       13.1619179700
  C        35.9424666324       16.1961863946       12.1638734410
  C        37.1220936870       16.1940120404       11.4250939534
  C        38.1252505790       17.1526543254       11.6668188377
  C        37.9177278550       18.0974918195       12.6896673509
  C        36.7339356765       18.1071795451       13.4233889497
  C        39.3794313106       17.1654819754       10.8803374297
  C        39.3715722662       17.1761761487        9.4588334691
  C        38.1630629373       17.3030533917        8.7042193195
  C        20.3317945493       17.9358936264        8.7638075653
  C        20.3534699016       17.9531399984       11.5766483647
  C        34.4252078699       17.2127947116        2.2261774622
  C        35.7321655692       17.1301364243        2.9367112750
  C        35.9408527460       16.1665835298        3.9359834225
  C        37.1365348931       16.1498721348        4.6497871685
  C        38.1491466502       17.0935184535        4.3851705176
  C        37.9454187626       18.0266070126        3.3513099268
  C        36.7496707346       18.0495205520        2.6392888566
  C        39.4013234149       17.1220128661        5.1725002215
  C        39.3831124019       17.1543921540        6.5934502651
  C        38.1689642065       17.2906977063        7.3378391321
  C        35.1308081820       26.6390690801        7.3083091059
  C        35.1846222064       26.6492968327        4.4984813092
  C        26.5681859984       17.8211649212        2.3362013794
  C        25.2587813893       17.8725495900        3.0454026982
  C        25.0144497223       18.8531386634        4.0186521267
  C        23.7968292584       18.8826551536        4.6917836364
  C        22.7947692921       17.9313972536        4.4137675740
  C        23.0346206870       16.9756945699        3.4093945068
  C        24.2532903451       16.9431109805        2.7359846686
  C        21.5307533663       17.9124310804        5.1839574445
  C        21.5535038890       17.8913778128        6.6050036650
  C        22.7697966222       17.7466035956        7.3467134656
  C        14.0476696540       17.8301799315        2.2938079932
  C        15.3526826451       17.8911414674        3.0180897712
  C        15.6077657602       18.8971457240        3.9634290020
  C        16.8166516026       18.9221415089        4.6565825335
  C        17.8052653913       17.9438824946        4.4269954570
  C        17.5550928574       16.9623398188        3.4491797046
  C        16.3457332602       16.9328272624        2.7574060957
  C        19.0741650982       17.9282341901        5.1973108241
  C        19.0722227190       17.9234661613        6.6200933323
  C        17.8647720152       17.8313470508        7.3812508441
  C        46.8029559225       17.2172531302        2.1619467380
  C        45.5092357885       17.1516926915        2.9022136583
  C        45.3026613067       16.1750384035        3.8887572971
  C        44.1181418786       16.1543092138        4.6205375066
  C        43.1098876187       17.1101261311        4.3881096699
  C        43.3129061265       18.0648365188        3.3733113264
  C        44.4983815406       18.0898464865        2.6427119681
  C        41.8570660303       17.1233170663        5.1782448258
  C        41.8669442759       17.1383178084        6.6003387947
  C        43.0778438510       17.2380462951        7.3554489247
  C        20.3188791648       17.9262243856        7.3290265051
  C        20.2987626808       17.9101259048        4.5163342257
  C        46.7857224947       17.2335197348       13.8811663101
  C        45.4842380850       17.1354802369       13.1602482228
  C        45.2635073342       16.1433764865       12.1928854745
  C        44.0766540403       16.1254441996       11.4638837395
  C        43.0809043259       17.0969588142       11.6846064618
  C        43.2924482911       18.0591955535       12.6897166532
  C        44.4800614887       18.0834275965       13.4137710261
  C        41.8336439611       17.1265537664       10.8890922971
  C        41.8550380227       17.1384328816        9.4678356877
  C        43.0723233114       17.2345551461        8.7223489034
  C        46.1531616997       26.6372240859        8.7212866910
  C        46.1625184692       26.6560767273       11.5309437937
  C        14.0464118147       17.8333302506       13.7041661348
  C        15.3678520655       17.9116928182       13.0150186118
  C        15.6401166830       18.9306917490       12.0897903844
  C        16.8692028893       18.9723106660       11.4351902759
  C        17.8538687597       17.9939765226       11.6797864477
  C        17.5886917284       17.0042388888       12.6438769342
  C        16.3617638218       16.9622304225       13.3021773813
  C        19.1210523833       17.9704233458       10.9100883042
  C        19.0965656486       17.9445675504        9.4884620247
  C        17.8766299583       17.8411118507        8.7473537180
  C        28.8089963754       14.0820572180        2.3662366479
  C        28.2078359262       12.9066733636        3.0596946444
  C        28.9414225818       12.1700016403        4.0016157995
  C        28.3490408023       11.0953002161        4.6613852468
  C        27.0114490399       10.7331402174        4.4011414719
  C        26.3006741216       11.4510163323        3.4226435261
  C        26.8892957744       12.5266319250        2.7629281485
  C        26.3465963822        9.6516000532        5.1645886375
  C        26.3327189859        9.6779067417        6.5853489022
  C        26.8363631945       10.7910122747        7.3303732024
  C        32.1782580240       21.2290692041        2.1595173787
  C        32.7728167951       22.3949128172        2.8810623001
  C        32.0106052063       23.1118798038        3.8166043491
  C        32.5813611512       24.1521303352        4.5441896952
  C        33.9314563159       24.5064236503        4.3551276457
  C        34.6777987417       23.8099996949        3.3865709746
  C        34.1085113580       22.7638546734        2.6621111236
  C        34.5590494040       25.5840394594        5.1557569294
  C        34.5369831511       25.5587341325        6.5770157555
  C        34.0111512454       24.4492014984        7.3123603617
  C        25.7189007898        8.6023420098        7.3044681285
  C        25.7077471640        8.6018864315        4.4913584726
  C        32.0830922507       21.1981701990       13.8711771038
  C        32.6556727543       22.3565426741       13.1231977563
  C        31.9144853302       23.0307676452       12.1406088489
  C        32.4918080694       24.0682373612       11.4103445792
  C        33.8236590019       24.4634537273       11.6453360444
  C        34.5469105717       23.8042012464       12.6576039406
  C        33.9751825451       22.7617483898       13.3812864843
  C        34.4665345183       25.5485521829       10.8661630103
  C        34.4898461820       25.5402759842        9.4441786871
  C        33.9885901762       24.4397965664        8.6790010217
  C        40.6159349128       17.1408644098        8.7473033793
  C        40.6042281460       17.1577595465       11.5573221098
  C        28.7462212769       14.0679705010       13.8101401903
  C        28.1381537909       12.9234538796       13.0660793351
  C        28.8791774494       12.2269478444       12.0983000584
  C        28.3020801398       11.1686160176       11.3994695925
  C        26.9690435604       10.7798446514       11.6439195652
  C        26.2455352254       11.4657909938       12.6371758388
  C        26.8202362107       12.5249072791       13.3372410555
  C        26.3308782401        9.6857679222       10.8730721207
  C        26.3247561672        9.6962014704        9.4514915458
  C        26.8292667590       10.8010691160        8.6958954009
  C        18.1354054243        3.1810651573        2.3222922865
  C        17.4059914516        4.2781789709        3.0207371322
  C        16.3905422976        3.9997665472        3.9485805325
  C        15.7428284736        5.0397313367        4.6120845911
  C        16.0944024498        6.3835301265        4.3721799210
  C        17.0834336757        6.6530544081        3.4080209958
  C        17.7325606142        5.6157610509        2.7429352345
  C        15.4701007770        7.4911819156        5.1353084786
  C        15.4853424907        7.4904339066        6.5570226601
  C        16.1868857801        6.4968158706        7.3102070476
  C        42.9457072538       31.8594780230        2.0781394476
  C        43.6461791889       30.7718420077        2.8218986028
  C        44.5913402991       31.0931533361        3.8083515959
  C        45.1971355333       30.0876135732        4.5559429678
  C        44.8709858374       28.7345099779        4.3408521160
  C        43.9455054532       28.4201701352        3.3272949784
  C        43.3366235159       29.4253121392        2.5793260698
  C        45.4885250138       27.6552578768        5.1441156866
  C        45.4926491017       27.6808889481        6.5658106279
  C        44.8056515566       28.6889770912        7.3124648376
  C        14.8562950437        8.5628889717        7.2693857930
  C        14.8749515510        8.5630444092        4.4567113891
  C        42.9463536548       31.9616407696       13.8036816238
  C        43.6920455082       30.8855849124       13.0907720839
  C        44.6563399358       31.1914402709       12.1181422512
  C        45.2778757516       30.1718560229       11.4004451190
  C        44.9543014358       28.8215016886       11.6382620894
  C        44.0212438673       28.5238805826       12.6494691079
  C        43.3929640630       29.5406513597       13.3616132785
  C        45.5631381904       27.7240660685       10.8529189371
  C        45.5333600178       27.7174477206        9.4316213328
  C        44.8270115987       28.7076472781        8.6786518272
  C        35.1081996529       26.6287707710        8.7433864662
  C        35.0789921123       26.6042643315       11.5537327193
  C        18.1486772164        3.2470928789       13.7014092023
  C        17.4299653966        4.3438098060       12.9923413982
  C        16.4149788338        4.0525167351       12.0684925454
  C        15.7665981213        5.0831450196       11.3932040702
  C        16.1209764672        6.4284387386       11.6161471039
  C        17.1121354055        6.7118152293       12.5736653487
  C        17.7599139919        5.6829219717       13.2533613255
  C        15.4904949657        7.5241062341       10.8436384046
  C        15.4963241815        7.5073532114        9.4225066144
  C        16.1931295757        6.5056778363        8.6758167394
  H        10.6722166960       12.4652779755       11.9002081931
  H        11.6943556149       10.5503892647       10.6583890836
  H        15.3921667486       11.1695386906       12.7661614024
  H        14.3517761550       13.0724084823       14.0113090555
  H        13.3759125798       11.6310194475        9.1962529090
  H        50.3231349495       22.7489043979       11.9821892102
  H        49.3200293995       24.6233695157       10.6762260169
  H        45.6421891990       24.1609018515       12.8583520159
  H        46.6632158483       22.2899463967       14.1666379728
  H        47.6302222463       23.5761254525        9.2412374753
  H        14.8721068095        8.5884249107       12.6035189091
  H        50.2873869035       22.7032337868        4.0649624174
  H        49.2694411423       24.5761450073        5.3649485381
  H        45.6102113788       24.1085797690        3.1519185476
  H        46.6523295014       22.2531751668        1.8376603294
  H        47.6081231146       23.5520458000        6.8020561676
  H        40.6335955286       17.0789977693        3.4158615239
  H        48.6869540367       14.0952814764       15.7949277425
  H        10.6809550803       12.4658119121        4.0972609432
  H        11.6892085350       10.5240013081        5.3011784161
  H        15.3942514608       11.1601159505        3.2121620205
  H        14.3657498209       13.0884829240        1.9967045266
  H        13.3754363561       11.6218659570        6.7582096988
  H        47.9302254429       14.2182575789        1.7161591339
  H        47.7799955356       14.3732582757       14.4898890652
  H        49.0834033731       18.5521069442        2.8723884633
  H        10.4159200677       14.1342061783        0.0040368873
  H        24.4861116436        3.0263325835       11.9117740413
  H        25.6308037806        4.8813258042       10.6850362927
  H        23.2578927981        7.7546137645       12.8329313213
  H        22.1316116345        5.8897688299       14.0615281567
  H        23.8260275130        5.7883206249        9.2526217711
  H        36.3637142408       32.1832609225       11.9711537707
  H        35.2271322274       30.3596434786       10.7028988955
  H        37.4900407026       27.4343661030       12.8994924554
  H        38.6068309051       29.2711681159       14.1766950615
  H        37.0086321980       29.4404721341        9.2907673885
  H        25.7486494319        8.6097737649       12.6391173666
  H        36.4579721596       32.2358496692        4.1240956039
  H        35.3503440535       30.4183940492        5.4215220412
  H        37.5494016478       27.4837325361        3.1713325408
  H        38.6314747642       29.3131446109        1.8615342647
  H        37.0435015343       29.4590308426        6.8533862898
  H        46.1094520997       26.5875582644        3.3908150387
  H        44.6684304447       35.1161735171       15.8088334543
  H        24.4440379904        3.0334898165        4.0825086196
  H        25.5863480472        4.8681201214        5.3303595409
  H        23.1855603906        7.7660852328        3.2483832488
  H        22.0549682879        5.9194453778        2.0001738460
  H        23.8100404945        5.7869336493        6.8141070732
  H        44.9543574957       34.3907990975        1.7003981375
  H        44.9025128172       34.2072082792       14.4853206811
  H        40.6666825920       33.2093854725        2.8584663388
  H        23.1507496645        1.9577066004        0.0099602516
  H        25.8498196426       19.6066723123       11.8521701866
  H        23.6827732200       19.6656435696       10.6303587522
  H        22.3243189197       16.2588416050       12.8838384667
  H        24.4985133594       16.2220237981       14.1143668893
  H        23.7146869323       17.6006906610        9.2474025175
  H        35.1690137396       15.4555615291       11.9755118543
  H        37.2831076419       15.4392672015       10.6584792569
  H        38.6839547131       18.8460479070       12.8804403686
  H        36.5571354215       18.8514912018       14.1963068987
  H        37.2263924846       17.4402018117        9.2370624579
  H        20.3606926099       18.0001331564       12.6642263259
  H        35.1509521940       15.4490575866        4.1513168263
  H        37.2989266974       15.3997755262        5.4208911434
  H        38.7212422305       18.7597958982        3.1406792919
  H        36.5711318175       18.7877772206        1.8610614327
  H        37.2368341319       17.4180180608        6.7952801669
  H        35.1672813402       26.6719670031        3.4104610428
  H        28.4993662185       21.0803546641       15.9680802447
  H        25.7883517592       19.5850266753        4.2369170766
  H        23.6130025402       19.6471594764        5.4438660622
  H        22.2690950408       16.2341661870        3.1902961265
  H        24.4552299736       16.1926111004        1.9755346988
  H        23.6962805165       17.5936070165        6.8006024907
  H        29.0226622433       21.7081166684        1.7564776049
  H        29.1596068405       21.7345153604       14.6183581777
  H        32.0882887835       18.5084922714        3.0038371705
  H        27.3681489730       19.0226495625        0.0974808143
  H        14.8480465067       19.6553224285        4.1398975317
  H        17.0101296654       19.7089172372        5.3826219816
  H        18.3079357214       16.1992614919        3.2623168492
  H        16.1418971485       16.1615242746        2.0184475171
  H        16.9216537032       17.7212215561        6.8539496027
  H        46.0877383692       15.4461805598        4.0759349101
  H        43.9597395165       15.3900309430        5.3782457390
  H        42.5425325214       18.8106761184        3.1886771536
  H        44.6714176680       18.8423102904        1.8768510318
  H        44.0183273901       17.3471782018        6.8229669555
  H        20.2938981388       17.9470523948        3.4284081319
  H        46.0370987630       15.3999074346       12.0144379748
  H        43.9081701042       15.3544875406       10.7151255574
  H        42.5290232917       18.8138028932       12.8672057213
  H        44.6641851261       18.8452310492       14.1672540584
  H        44.0088208880       17.3395041102        9.2625167306
  H        46.1995432036       26.6827099460       12.6183861908
  H        52.7413506545       21.0629135088        0.1998776180
  H        14.8785435335       19.6838739268       11.9001510017
  H        17.0791427480       19.7655941873       10.7209197026
  H        18.3405708886       16.2427538487       12.8406855414
  H        16.1422099317       16.1850814017       14.0302366506
  H        16.9423866813       17.7383099385        9.2911093229
  H        52.3237915256       21.6736671899       14.2887800053
  H        52.0141560070       21.7027013881        1.5010335417
  H        49.0681488505       18.6077238973       13.1987463476
  H        13.2479733853       19.0163977942       15.9721854664
  H        29.9728875903       12.4547973066        4.2001587513
  H        28.9188946653       10.5219640885        5.3895520932
  H        25.2671499268       11.1814700037        3.2151417560
  H        26.3374798837       13.1029713941        2.0243899806
  H        27.2007903479       11.6579414216        6.7875188186
  H        30.9687731045       22.8356252342        3.9600246005
  H        31.9846498124       24.7078440518        5.2645161385
  H        35.7221501282       24.0746860378        3.2340991018
  H        34.6896412059       22.2028769892        1.9338308167
  H        33.6491189729       23.5860938551        6.7605509272
  H        25.7372044357        8.5828087127        3.4033469725
  H        30.8858280577       22.7298204821       11.9552369643
  H        31.9089306734       24.5908907875       10.6549965442
  H        35.5776365452       24.0970811543       12.8463006480
  H        34.5399710493       22.2314475883       14.1441719031
  H        33.6113073208       23.5679307492        9.2070105241
  H        40.5995394764       17.1201228145       12.6449835726
  H        32.5217723074       14.1501362000        0.2691790667
  H        29.9111247134       12.5218981701       11.9182327624
  H        28.8851865521       10.6219731981       10.6613043586
  H        25.2140550884       11.1790826075       12.8318170481
  H        26.2583618556       13.0694261565       14.0924959255
  H        27.1869441853       11.6762743663        9.2299656112
  H        33.3019533604       14.2025962753       14.4422033279
  H        33.4065095077       14.3613426319        1.6352642363
  H        32.1117655561       18.5088247547       13.1805621049
  H        30.2264889691       14.1852493474        0.0871479472
  H        16.1185976111        2.9632682812        4.1351533378
  H        14.9535869064        4.8202990222        5.3279572826
  H        17.3656062004        7.6859595563        3.2146576624
  H        18.5142865292        5.8185553663        2.0147897631
  H        16.7535296922        5.7395116507        6.7767469876
  H        44.8275485748       32.1402336510        3.9826371556
  H        45.9368844613       30.3414441649        5.3119815987
  H        43.6832494970       27.3780414797        3.1568814906
  H        42.6004800300       29.1898743533        1.8142406278
  H        44.2304257444       29.4368675773        6.7741980387
  H        14.8512480437        8.5463879871        3.3684870105
  H        44.8999100942       32.2341011980       11.9266308708
  H        46.0246249962       30.4130897291       10.6470499344
  H        43.7646209112       27.4841256663       12.8413543463
  H        42.6469496183       29.3178212403       14.1205159591
  H        44.2686919708       29.4706767743        9.2132247259
  H        35.0330180410       26.6151275972       12.6411230115
  H        36.6051979288       35.1340018399        0.1858106643
  H        16.1439957628        3.0129458707       11.8986199451
  H        14.9744514088        4.8562578630       10.6829386382
  H        17.3954560159        7.7473087046       12.7507200471
  H        18.5425995442        5.8935066206       13.9782976715
  H        16.7646079285        5.7554728893        9.2142543120
  H        36.2781745731       34.4829522398       14.2677244420
  H        36.3804092936       34.2092473619        1.5047143735
  H        40.5800304219       33.2023282492       13.1485561855
  H        17.4712323620        1.9477244271       15.9689919011
  H        28.7554786314       18.8520304852        4.3551051689
  H        30.2106386011       19.7571542451       11.9129801448
  H        32.3112749772       16.2595980999       11.8113666307
  H        32.0126722749       15.9982170837        4.5981117102
  H        28.4759497937       17.3246877040        6.9476191392
  H        29.7715223826       15.0709826265        6.5925820732
  H        32.8103622184       20.6105856335        8.3496420471
  H        32.5534368641       17.8988333144        9.5497015660
  H        29.0387503238       20.1446758259        7.8804909625
  H        18.8529913893        0.8688559604        4.3401043741
  H        40.5280480527       35.2289694618       11.9468766101
  H        42.3246844129       34.4195508957       11.5849786611
  H        22.0876886324        0.6920081638        4.3568805064
  H        11.5968455118       18.7131437892        4.3877305937
  H        52.2649559212       18.4314294153       11.6721302284
  H        49.2551314831       16.4763191291       11.5792936336
  H        10.1506804771       15.7981639996        4.2977807053
  H        50.8503650446       17.6924939871       11.9489510850
  H        10.0466229098       17.3946127475        4.0569163294
  H        20.2145194950        0.0023120099        4.0470825025
  H        39.1836439764       36.1244514898       11.6814268191
 Ni        30.7372790388       17.7460728579       10.9906182142
 Ni        31.1542578577       16.3812027345        8.4058471877
 Ni        30.0543778406       19.1208843972        7.6644708650
 Ni        30.0249312111       17.2131818395        5.2475398929
  O        10.6499589029       14.3650821046       13.4807103415
  O        12.6133039432       14.6575130152       14.5787999464
  O        49.1478534565       16.8457919085       15.9846914743
  O        50.3503171649       20.9357174649       13.6428319845
  O        48.3485102182       20.5933935469       14.6608016109
  O        11.0517970586       17.0536885463       14.4956904798
  O        50.3209357999       20.8816658064        2.4120396318
  O        48.3465918949       20.5868917339        1.3323171098
  O        49.5436990097       18.2483205273        2.0733608685
  O        12.3594112091       18.6247349336        0.0046671363
  O        48.6932597880       14.1486977543       14.7461742525
  O         8.2098701625       14.2104692922        1.3276711268
  O        10.7353846697       14.5067186665        2.6693702074
  O        12.5718180070       14.5828782690        1.3335853431
  O        22.8447665862        2.0432415495       13.4818872505
  O        21.6064834669        3.5928949975       14.5835583534
  O        42.0581031732       34.1373841402       15.9738289516
  O        37.9811505503       33.1356019805       13.5669171487
  O        39.2177083417       31.5751823297       14.6610462471
  O        20.3084223660        1.0395767141       14.4970656744
  O        38.0239690443       33.1839378694        2.4211926679
  O        39.2186728296       31.5829913388        1.3322487001
  O        40.6521551541       33.7692558788        2.0652885387
  O        18.2558617586        1.3764581444        0.0018301454
  O        44.6221565251       35.1006277085       14.7536809723
  O        24.2053441455        0.0000217937        1.3258656804
  O        22.7531764991        2.0573887799        2.5887423687
  O        21.6249561084        3.5965333573        1.3485736182
  O        27.4899097426       18.7475217889       13.4979374836
  O        26.7614897006       16.9265807893       14.6498952473
  O        30.6367183037       19.3500797220        0.0802551356
  O        33.5876387975       16.2786435932       13.6576439788
  O        34.2748431508       18.1670393349       14.7323299582
  O        29.5695118562       17.0479873772       14.5707347432
  O        33.5418819854       16.3298922389        2.5010210158
  O        34.2687939420       18.1812871820        1.4107492741
  O        31.6466085342       18.3184357985        2.1599177649
  O        30.3194998859       15.1520262247        0.0923243320
  O        28.5512858569       21.0289953798       14.9012876459
  O        28.5143579052       20.9507753892        1.4196058501
  O        27.4595151686       18.6777184718        2.6656167456
  O        26.6913864685       16.9287110514        1.4229880682
  O        13.1486223444       18.6931895777        2.5924123108
  O        13.9197808518       16.9166940857        1.4107113277
  O        50.5964071367       19.3501930593        0.0254999041
  O        47.6822285116       16.3273487093        2.4225500606
  O        46.9511593182       18.1759905039        1.3299634433
  O        11.0699370339       17.0154309409        1.4945745849
  O        47.6749243224       16.3359777972       13.6471997144
  O        46.9271603352       18.2359756999       14.6593901327
  O        49.5688302848       18.3174957230       13.9771592757
  O        10.3186707199       15.1001099807        0.0023933762
  O        52.6707943021       21.0277937002        1.2469561316
  O        12.1468567360       20.8911054001       14.6682297529
  O        13.1078568318       18.6137872613       13.3206092234
  O        13.9576350141       16.9873444515       14.6598572151
  O        29.9965745208       14.4324303855        2.6712032708
  O        28.0742573963       14.6562890220        1.4913397305
  O        32.1336719408       16.8459271975        0.0982390221
  O        30.9600354012       20.9395017008        2.4235493485
  O        32.9415855596       20.6000726756        1.3452951069
  O        29.5659715662       17.0684415669        1.5817868024
  O        30.8512012392       20.8859118174       13.6512524767
  O        32.8677820931       20.5850272858       14.6633914046
  O        31.6825515118       18.2475192973       14.0125260330
  O        28.2561395832       18.6296822192        0.0882540074
  O        32.4909004245       14.2141046048        1.3378029045
  O        32.4069906584       14.2119767193       14.8202978139
  O        29.9176901807       14.4406814390       13.4822306516
  O        28.0386601820       14.5847854590       14.7451822372
  O        17.8892885206        1.9665555373        2.6678451426
  O        18.9563144388        3.5270862172        1.4130585493
  O        39.1685817998       34.1386705718        0.0022392452
  O        43.2801537032       33.0589072642        2.3367786825
  O        42.0343545805       31.5064576752        1.2466784581
  O        20.3176066727        1.0367135168        1.4850702604
  O        43.2760808359       33.1826478282       13.5699031480
  O        42.0053057398       31.5840918465       14.5780115647
  O        40.5788803650       33.7749837329       13.9306914898
  O        22.3673811149        1.3847716197        0.0030003948
  O        36.6728716477       35.0996876664        1.2384380518
  O        16.4457715635        0.0641979591       14.6631423294
  O        17.9365031967        2.0433389049       13.3213386500
  O        18.9191932233        3.5930898339       14.6608410445
  O        29.7777995890       18.9150460409       12.1540630206
  O        29.6947727090       18.7542486160        4.0838190298
  O        31.3735744194       16.2602745755       12.0884626125
  O        31.2922470267       16.4261550431        4.0676444994
  O        32.1066421015       17.0725051252        9.8299316089
  O        29.8952606791       18.6828144127        9.5268749593
  O        30.3728720017       15.8306671293        6.6624590937
  O        31.5646417113       17.8595778494        7.3431671609
  O        32.6208241362       20.0003862675        9.0820884110
  O        28.7643377495       18.0199552506        6.3288008863
  O        39.4567918631       35.2437735523       11.9968815402
  O        19.1411391498        0.0043445134        3.9956267351
  O        41.9695016611       35.1727466894       12.0820596356
  O        21.6912088413       -0.0691960955        3.9009414082
  O        51.3651037378       18.6143425848       12.0003378386
  O        10.7511266368       18.7471275368        3.9099996204
  O        50.0795156328       16.4128068151       12.0866992120
  O         9.5247684274       16.4830565878        3.9963709488
 Zr         9.2973215249       16.0527220827       14.1774251732
 Zr        49.8368157942       16.0067795462        1.7514924538
 Zr        22.0734902368        0.0300992967       14.1837352210
 Zr        42.4611288911       35.1536261144        1.8061282976
 Zr        29.5699556271       19.0700478032       14.3011885326
 Zr        29.5715180462       19.1514807645        1.8603796742
 Zr        11.0386333394       19.0518532460        1.8328701081
 Zr        11.0445405536       19.1547211278       14.2458062792
 Zr        31.3353746101       16.0918262783        1.9245380702
 Zr        31.3891052892       16.0029169719       14.3073863783
 Zr        18.6012685306       -0.0011217713        1.7683941085
 Zr        18.5067207076       -0.0073852255       14.2085341126
 Zr        12.3030723263       16.3238466867       15.9851513693
 Zr        48.6170961564       18.8330987102        0.0154368092
 Zr        20.3155548841        2.4741796098       15.9853897819
 Zr        40.6437753583       32.6872553520       15.9729153725
 Zr        28.3330469261       16.3228661999        0.0846389914
 Zr        32.6204730430       18.8155019480        0.0659986117
  H        32.3126463422       18.3821941563        7.6977542988
  O        30.6699271347       14.8790621416        9.6591311132
  H        30.8690967205       15.2274636082       10.5821092160
  H        29.7161817144       14.6847425915        9.6785516112
  O        33.0330130063       15.1698012506        5.8316492958
  H        33.5469732268       15.8901642036        6.2335349291
  H        32.1699514121       15.2208669449        6.3143532735
  O        25.9787035343       20.2203552960        8.1605377122
  H        26.8501337135       19.9000941391        7.8593901583
  H        25.4433449393       19.4158919610        8.2593351480
  O        30.7955822057       20.2261730183        5.9980006116
  H        30.4390638674       19.7252738860        5.1889374219
  H        30.3200035172       21.0727635272        5.9917429953
  H        29.1553817310       19.1720409839        9.9293180389
  H        31.6347196513       19.9833132498        9.1325988869
