     586
 i =       30, E =     -4847.7349594261
  C        11.8587133576       14.0535499287       13.7364837815
  C        12.4562215483       12.8906234793       13.0181256664
  C        11.7044995486       12.1715942953       12.0765722939
  C        12.2808749542       11.1093926865       11.3842024980
  C        13.6214705964       10.7396768294       11.6119083876
  C        14.3546782373       11.4433344791       12.5852796287
  C        13.7817917535       12.5083230640       13.2767682248
  C        14.2610617901        9.6490329093       10.8385226390
  C        14.2565030647        9.6569960248        9.4168232515
  C        13.7433247741       10.7591219531        8.6629250789
  C        49.1268894368       21.2332649812       13.8745035198
  C        48.5501501447       22.4011629609       13.1474386993
  C        49.3001982842       23.0684952646       12.1664528668
  C        48.7332671687       24.1076413761       11.4332671744
  C        47.4027282925       24.5092981649       11.6619141744
  C        46.6717675288       23.8604354107       12.6754336638
  C        47.2342186364       22.8155321774       13.4047707174
  C        46.7724860820       25.5869794806       10.8646356169
  C        46.7615010007       25.5573975541        9.4428738950
  C        47.2614466841       24.4423172248        8.6993774674
  C        14.8604875587        8.5706675338        8.7035749489
  C        14.8917446866        8.5970342157       11.5151813991
  C        49.1132572702       21.2034914492        2.1504862588
  C        48.5279527007       22.3648733587        2.8775901416
  C        49.2671736281       23.0255306793        3.8705606535
  C        48.6908688174       24.0601039003        4.6020085695
  C        47.3604851993       24.4569586348        4.3637143378
  C        46.6400886466       23.8121400796        3.3401171762
  C        47.2136199965       22.7762172971        2.6083544604
  C        46.7220356941       25.5319111349        5.1547432735
  C        46.7337718626       25.5282581128        6.5764483205
  C        47.2491903833       24.4290368376        7.3328235212
  C        40.6299036292       17.1559926483        7.3273248407
  C        40.6500039824       17.1820943911        4.5177317812
  C        11.8830125297       14.0865400549        2.2905867235
  C        12.4723684683       12.9107710332        2.9948831406
  C        11.7148313010       12.1774635218        3.9208874748
  C        12.2814599900       11.0950227569        4.5893081705
  C        13.6203294700       10.7214372162        4.3575626190
  C        14.3583277468       11.4371306236        3.3968769009
  C        13.7928739620       12.5182898361        2.7241928207
  C        14.2539793005        9.6247042029        5.1279759946
  C        14.2527578666        9.6446901760        6.5498132485
  C        13.7428303149       10.7536218334        7.2968794309
  C        22.5123306875        3.2439222264       13.7487705182
  C        23.2296732554        4.3480375199       13.0495632723
  C        24.2265973789        4.0644922543       12.1044696461
  C        24.8567792076        5.1017581528       11.4220830880
  C        24.5057174315        6.4443049652       11.6651951135
  C        23.5371868274        6.7195773654       12.6476766394
  C        22.9022935759        5.6839512646       13.3285240149
  C        25.1141081515        7.5483827300       10.8884334800
  C        25.0830660698        7.5418573043        9.4668658794
  C        24.3769300459        6.5445797003        8.7219186611
  C        38.3038160546       31.9288023248       13.8430914404
  C        37.5781056799       30.8377916571       13.1326773964
  C        36.6221068493       31.1380550258       12.1503771971
  C        36.0097274648       30.1150527236       11.4317573928
  C        36.3384441034       28.7668591844       11.6741768793
  C        37.2646579714       28.4741751866       12.6929141982
  C        37.8814607794       29.4957751214       13.4099966811
  C        35.7406305755       27.6724678028       10.8773030121
  C        35.7747537046       27.6857129824        9.4560741457
  C        36.4806536935       28.6878966430        8.7185809452
  C        25.7065928585        8.6104163723        8.7452737141
  C        25.7153895159        8.6217229258       11.5574223649
  C        38.3289067840       31.9616138050        2.1612309129
  C        37.6088840471       30.8869059553        2.9015892013
  C        36.6833340698       31.1920966249        3.9111965599
  C        36.0773990170       30.1708486002        4.6403520790
  C        36.3829046292       28.8192503068        4.3833455974
  C        37.2852995311       28.5242127439        3.3431587153
  C        37.8935272010       29.5417672478        2.6154182540
  C        35.7801356754       27.7174606869        5.1674834524
  C        35.7950042658       27.7085427912        6.5893599098
  C        36.4899893275       28.6990660416        7.3520117308
  C        46.1357172592       26.6208606183        7.2865890726
  C        46.0880158912       26.5802364397        4.4786969881
  C        22.4603360754        3.2550435457        2.2623365621
  C        23.1538749269        4.3634866264        2.9861262697
  C        24.1569865860        4.0763257432        3.9253677276
  C        24.7847047991        5.1058365288        4.6223283693
  C        24.4293825938        6.4514455911        4.4015414807
  C        23.4492083816        6.7319380193        3.4309618347
  C        22.8167435956        5.7026810175        2.7346632857
  C        25.0612238273        7.5487755397        5.1751699818
  C        25.0559395632        7.5417718349        6.5977947362
  C        24.3621588036        6.5457395295        7.3552543151
  C        26.6240113032       17.8606344175       13.7779651816
  C        25.3139574312       17.9049368539       13.0570500067
  C        25.0585448055       18.8970307989       12.0966626581
  C        23.8451708754       18.9181413876       11.4109050568
  C        22.8524473354       17.9476612622       11.6585585620
  C        23.1065174943       16.9767286571       12.6457814083
  C        24.3211129371       16.9502729059       13.3302975413
  C        21.5782745383       17.9336879003       10.8950838375
  C        21.5777023442       17.9100927790        9.4725207677
  C        22.7829836218       17.7857862926        8.7119174352
  C        34.4207305784       17.2311816678       13.9097761123
  C        35.7060967190       17.1795923464       13.1536409978
  C        35.9070825222       16.2194400460       12.1497132219
  C        37.0918406962       16.2024836220       11.4173482694
  C        38.1104104335       17.1429381998       11.6700711281
  C        37.9119904690       18.0823556445       12.6997920572
  C        36.7244749584       18.1050217208       13.4271555366
  C        39.3694548975       17.1482132448       10.8895535710
  C        39.3690689829       17.1728592118        9.4679140206
  C        38.1645096382       17.3095949806        8.7086088808
  C        20.3309749618       17.9261861838        8.7639821626
  C        20.3532518375       17.9372908955       11.5772724889
  C        34.4480664419       17.2467499053        2.1995339760
  C        35.7546362704       17.1706586274        2.9220867268
  C        35.9822017289       16.1892895647        3.8991075966
  C        37.1727462769       16.1790125292        4.6224689883
  C        38.1688568741       17.1473595760        4.3879650396
  C        37.9507985293       18.1021282553        3.3773291335
  C        36.7589347685       18.1167672789        2.6567192409
  C        39.4181741228       17.1720618133        5.1813820033
  C        39.3941404522       17.1851855033        6.6023690492
  C        38.1764060956       17.3125208686        7.3421606690
  C        35.1676117262       26.6279772062        7.2938063278
  C        35.1882185802       26.6478270296        4.4846077585
  C        26.5653323964       17.8273480239        2.3305239859
  C        25.2557657271       17.8685353658        3.0423481251
  C        24.9912916313       18.8729649138        3.9858838428
  C        23.7745380848       18.8975370272        4.6608392492
  C        22.7894231888       17.9216626372        4.4095812924
  C        23.0455846589       16.9450121997        3.4300902226
  C        24.2637870870       16.9181303761        2.7544699987
  C        21.5266473708       17.9021269311        5.1827935612
  C        21.5517524104       17.8917993483        6.6042076596
  C        22.7705026592       17.7762341676        7.3457584564
  C        14.0465153381       17.8286250046        2.2941779540
  C        15.3505767361       17.8847815693        3.0200638168
  C        15.6064570668       18.8859467268        3.9700335221
  C        16.8149486719       18.9053268832        4.6638042943
  C        17.8018171813       17.9264747234        4.4295909085
  C        17.5508872222       16.9498633374        3.4472113060
  C        16.3417720766       16.9257322113        2.7551983267
  C        19.0707742758       17.9084765046        5.1986715798
  C        19.0702897720       17.9039304751        6.6211793537
  C        17.8636645091       17.8035832655        7.3827099808
  C        46.8062440496       17.2205884043        2.1652746207
  C        45.5178135508       17.1651198927        2.9136424395
  C        45.3100773579       16.1930838333        3.9042919312
  C        44.1295794130       16.1834499241        4.6427040570
  C        43.1271130900       17.1457225724        4.4113912814
  C        43.3328752789       18.0980951168        3.3950645181
  C        44.5139694845       18.1117043795        2.6580900372
  C        41.8733402663       17.1642850246        5.1987338542
  C        41.8777470223       17.1650661498        6.6207195135
  C        43.0855731568       17.2546455716        7.3821140645
  C        20.3172972074       17.9156477941        7.3292189124
  C        20.2946957379       17.8905652346        4.5162631933
  C        46.7845381791       17.2313450643       13.8844948669
  C        45.4796288291       17.1273254182       13.1711723049
  C        45.2580599768       16.1331044293       12.2063191558
  C        44.0684745780       16.1107158010       11.4821250579
  C        43.0703933019       17.0790658050       11.7063405393
  C        43.2819958124       18.0422241680       12.7104767472
  C        44.4728612345       18.0711599515       13.4292278855
  C        41.8242196455       17.1092486051       10.9085544214
  C        41.8526885090       17.1351496516        9.4876419266
  C        43.0736337607       17.2378758852        8.7486912169
  C        46.1534831875       26.6372759867        8.7211322849
  C        46.1624130003       26.6560193259       11.5307858999
  C        14.0457476946       17.8315631930       13.7035608468
  C        15.3670165144       17.9057802681       13.0135488875
  C        15.6402011635       18.9195200135       12.0830721401
  C        16.8694836717       18.9561853207       11.4287021634
  C        17.8532028223       17.9782980263       11.6792042830
  C        17.5869337177       16.9938194965       12.6481105674
  C        16.3596228050       16.9564907757       13.3058248815
  C        19.1205770067       17.9523335961       10.9104630596
  C        19.0961530753       17.9252585450        9.4890607360
  C        17.8763202228       17.8131831473        8.7487101731
  C        28.8034518394       14.0887869409        2.3962150707
  C        28.1908094319       12.9157663946        3.0829605255
  C        28.9153754492       12.1748209910        4.0285779281
  C        28.3174337666       11.0991404622        4.6800438172
  C        26.9813735178       10.7410720039        4.4088803994
  C        26.2779648548       11.4621852092        3.4273155343
  C        26.8740854551       12.5380458686        2.7746395326
  C        26.3135115726        9.6612287391        5.1706100239
  C        26.3050501241        9.6855619806        6.5914424919
  C        26.8122642599       10.7973919004        7.3358619674
  C        32.1787409143       21.2397434101        2.1551705631
  C        32.7746895296       22.4015156698        2.8738854375
  C        32.0362046339       23.0688564746        3.8631280154
  C        32.6121503521       24.1075952901        4.5873740533
  C        33.9413354139       24.5048441909        4.3457029964
  C        34.6614540418       23.8546753792        3.3255361540
  C        34.0885456840       22.8118202411        2.6012195498
  C        34.5761965795       25.5768796412        5.1448696418
  C        34.5745247716       25.5445481506        6.5664968623
  C        34.0694354687       24.4275032931        7.3043769425
  C        25.6967320282        8.6075164761        7.3110489765
  C        25.6754038963        8.6109916910        4.4981568070
  C        32.1088254425       21.2233241210       13.8718683157
  C        32.7071655398       22.3636962283       13.1201328711
  C        31.9798021450       23.0171950410       12.1137000226
  C        32.5628404141       24.0476245873       11.3805519986
  C        33.8865692000       24.4555845535       11.6365354098
  C        34.5974289351       23.8137323276       12.6685937986
  C        34.0187450000       22.7783313429       13.3977536233
  C        34.5291296321       25.5364718820       10.8543694515
  C        34.5497162856       25.5248727481        9.4325266571
  C        34.0568916005       24.4188969028        8.6709047789
  C        40.6169126672       17.1445621770        8.7616506366
  C        40.5918186877       17.1323462063       11.5718030344
  C        28.7118572687       14.0941092093       13.7835757734
  C        28.1123715929       12.9389593280       13.0535097182
  C        28.8617298353       12.2340302690       12.0974421080
  C        28.2930624708       11.1672769549       11.4056087952
  C        26.9587520323       10.7809276748       11.6449680101
  C        26.2289226041       11.4707384910       12.6307004480
  C        26.7941922863       12.5403038125       13.3220239977
  C        26.3257110952        9.6831835134       10.8773170900
  C        26.3142068099        9.6964391443        9.4562498860
  C        26.8145524864       10.8032794279        8.7013187718
  C        18.1353770634        3.1808756109        2.3222859485
  C        17.4060546314        4.2781789936        3.0208597991
  C        16.3903787384        3.9998479903        3.9484225471
  C        15.7426806679        5.0398734884        4.6118933498
  C        16.0946085314        6.3835868407        4.3722082518
  C        17.0838973802        6.6530506809        3.4083211021
  C        17.7329527845        5.6156893663        2.7432622121
  C        15.4703604470        7.4913337967        5.1352520397
  C        15.4856648437        7.4906420726        6.5569676559
  C        16.1870630519        6.4969237745        7.3101534185
  C        42.9460118042       31.8594453547        2.0779227560
  C        43.6462700398       30.7718488213        2.8219947466
  C        44.5919738623       31.0931840005        3.8079007556
  C        45.1976630822       30.0876531764        4.5555908928
  C        44.8711669221       28.7345932057        4.3408048694
  C        43.9451865818       28.4202439513        3.3277406316
  C        43.3363553913       29.4253658904        2.5797006981
  C        45.4887828845       27.6553229573        5.1439996733
  C        45.4929811929       27.6809802063        6.5656910352
  C        44.8058091637       28.6889656296        7.3123092063
  C        14.8567812111        8.5631762479        7.2693484322
  C        14.8751094736        8.5631305581        4.4566715115
  C        42.9466330645       31.9614294468       13.8040128815
  C        43.6915958881       30.8853503053       13.0902911922
  C        44.6564537291       31.1912523537       12.1182419965
  C        45.2779322600       30.1716665352       11.4004913303
  C        44.9540419271       28.8213531213       11.6380211769
  C        44.0203120366       28.5236987785       12.6485706602
  C        43.3920674750       29.5404580232       13.3607625932
  C        45.5631202468       27.7240107619       10.8527285855
  C        45.5334488996       27.7173841197        9.4314296488
  C        44.8270665145       28.7075798421        8.6784961922
  C        35.1559586252       26.6171957235        8.7284073002
  C        35.1359783701       26.5970219698       11.5378276072
  C        18.1485982666        3.2469019425       13.7014497630
  C        17.4298129719        4.3437711417       12.9923500801
  C        16.4147315770        4.0524886311       12.0686540369
  C        15.7663930207        5.0831299129       11.3932949917
  C        16.1210338687        6.4283617548       11.6160468037
  C        17.1122661044        6.7117455203       12.5734651775
  C        17.7599554002        5.6828350430       13.2532165351
  C        15.4906020804        7.5241027836       10.8436118444
  C        15.4966063828        7.5075084923        9.4224748708
  C        16.1932400620        6.5057239398        8.6757619420
  H        10.6723276130       12.4656228225       11.8996245948
  H        11.6945584156       10.5507885669       10.6577783665
  H        15.3917296491       11.1687917647       12.7669696527
  H        14.3512690870       13.0716761117       14.0120950681
  H        13.3761788378       11.6311789878        9.1962567937
  H        50.3229202209       22.7484987622       11.9817122805
  H        49.3197724505       24.6229246693       10.6757157324
  H        45.6422819696       24.1612252822       12.8586105586
  H        46.6632026286       22.2903289552       14.1668828255
  H        47.6299715934       23.5759271335        9.2410487504
  H        14.8719087198        8.5881904032       12.6034844596
  H        50.2872128530       22.7026769372        4.0654980172
  H        49.2692762320       24.5755401097        5.3655149934
  H        45.6107298413       24.1094946656        3.1509857204
  H        46.6528139276       22.2541761875        1.8367024492
  H        47.6079563920       23.5519149956        6.8019252328
  H        40.6585616153       17.1474475468        3.4299806198
  H        48.6870048513       14.0950286197       15.7948750873
  H        10.6812909571       12.4663819400        4.0981510338
  H        11.6896238451       10.5244830195        5.3018532237
  H        15.3938037455       11.1593522241        3.2110421472
  H        14.3652258632       13.0877947723        1.9957773775
  H        13.3759119109       11.6221900750        6.7582274223
  H        47.9302757286       14.2179353391        1.7161349785
  H        47.7799969921       14.3732824350       14.4899641601
  H        49.0843936412       18.5528317966        2.8725679320
  H        10.4160507171       14.1342813854        0.0037917642
  H        24.4846364338        3.0249965277       11.9147696045
  H        25.6298841251        4.8820440174       10.6889808111
  H        23.2588043238        7.7534114062       12.8414630646
  H        22.1320327560        5.8865741091       14.0687220457
  H        23.8151470023        5.7892266069        9.2636424240
  H        36.3837820722       32.1804043662       11.9522782380
  H        35.2679973588       30.3509004803       10.6718563340
  H        37.5258399663       27.4359419555       12.8870369336
  H        38.6224617939       29.2779595462       14.1754184897
  H        37.0457921342       29.4377736592        9.2644457473
  H        25.7521601401        8.6048400972       12.6452147069
  H        36.4597266693       32.2354841462        4.1218490265
  H        35.3544165267       30.4126755830        5.4162500442
  H        37.5324885496       27.4847738972        3.1377888367
  H        38.6130879594       29.3190214819        1.8314082275
  H        37.0631563298       29.4573874285        6.8264008398
  H        46.1093939102       26.5876525044        3.3906598538
  H        44.6681482927       35.1160041186       15.8088381623
  H        24.4352477380        3.0379484275        4.0907843554
  H        25.5664893195        4.8768537232        5.3434214546
  H        23.1636328760        7.7666017591        3.2523907063
  H        22.0440615303        5.9155737970        1.9995427761
  H        23.7892272918        5.7906601504        6.8248306731
  H        44.9535770033       34.3902182985        1.7000603563
  H        44.9015546297       34.2067291728       14.4853858081
  H        40.6654828497       33.2086253599        2.8579829362
  H        23.1507084795        1.9572088311        0.0105468806
  H        25.8223965261       19.6484619516       11.9081608748
  H        23.6515742353       19.6961846230       10.6752839545
  H        22.3521323927       16.2185706906       12.8464628721
  H        24.5259800609       16.1871456896       14.0775591076
  H        23.7240189050       17.6680479432        9.2412463227
  H        35.1193226969       15.4952462973       11.9541264850
  H        37.2449809395       15.4496319830       10.6469529449
  H        38.6888127872       18.8174019901       12.9000888378
  H        36.5559937820       18.8457880878       14.2053771642
  H        37.2267792299       17.4430830330        9.2401620811
  H        20.3600615837       17.9795660134       12.6650461738
  H        35.2068598793       15.4504786346        4.0903003955
  H        37.3460801316       15.4141727987        5.3765495321
  H        38.7126770187       18.8570637352        3.1915429935
  H        36.5734563529       18.8740512776        1.8984954419
  H        37.2480852689       17.4467614228        6.7945396071
  H        35.1550862171       26.6764972904        3.3971339287
  H        28.5083655479       21.0727985802       15.9528402247
  H        25.7526858092       19.6254404759        4.1772121255
  H        23.5717986131       19.6788786261        5.3902220127
  H        22.2918556182       16.1860368205        3.2304729767
  H        24.4779119089       16.1514511217        2.0136567545
  H        23.7019614718       17.6509136710        6.8017600183
  H        29.0052988440       21.7215970848        1.7637288581
  H        29.1708875604       21.7406834742       14.6208531278
  H        32.0874389144       18.5695953157        3.0605271546
  H        27.4011073665       19.0635051515        0.0898951186
  H        14.8478978499       19.6445764699        4.1494435363
  H        17.0097767929       19.6880016374        5.3938660850
  H        18.3025450683       16.1864593895        3.2569701368
  H        16.1364165822       16.1583756492        2.0125947162
  H        16.9211855964       17.6864156476        6.8556878408
  H        46.0906084467       15.4584765958        4.0882788190
  H        43.9685418832       15.4212703527        5.4019203516
  H        42.5673584730       18.8494254854        3.2127804982
  H        44.6895828537       18.8608938234        1.8896822224
  H        44.0285798484       17.3683327478        6.8548980783
  H        20.2885546256       17.9224025988        3.4281894796
  H        46.0343042291       15.3931846105       12.0246596912
  H        43.9007589495       15.3399717928       10.7329946902
  H        42.5170738517       18.7948226226       12.8899460699
  H        44.6577748343       18.8345119605       14.1809872183
  H        44.0075389995       17.3378841559        9.2943009427
  H        46.1992054018       26.6825591627       12.6182341073
  H        52.7412670204       21.0627588206        0.1998191349
  H        14.8793151228       19.6723225133       11.8891472237
  H        17.0803014640       19.7450694107       10.7098515041
  H        18.3379173673       16.2325638325       12.8491174960
  H        16.1386550062       16.1833074345       14.0376072455
  H        16.9432581709       17.7033049897        9.2931402429
  H        52.3230495586       21.6734893390       14.2890022389
  H        52.0136808241       21.7023946806        1.5008919119
  H        49.0674936337       18.6078621874       13.1989953914
  H        13.2476361187       19.0163380022       15.9722309630
  H        29.9447213266       12.4553717273        4.2408208465
  H        28.8814528986       10.5244490652        5.4116132914
  H        25.2452788739       11.1953563124        3.2121991038
  H        26.3296725684       13.1172048543        2.0327792366
  H        27.1742229074       11.6663176754        6.7947145605
  H        31.0183200832       22.7457990958        4.0652345133
  H        32.0354876802       24.6238662193        5.3516242678
  H        35.6904900567       24.1513503836        3.1335686610
  H        34.6494721400       22.2846195450        1.8330801739
  H        33.7125404196       23.5580643182        6.7595616123
  H        25.7026199894        8.5916146230        3.4101353969
  H        30.9611952206       22.6977905891       11.9071159937
  H        31.9910058798       24.5549466001       10.6066824714
  H        35.6226903240       24.1166549693       12.8708177964
  H        34.5725596979       22.2610546329       14.1776321693
  H        33.6910738758       23.5427694143        9.1988261736
  H        40.5835543770       17.0870309487       12.6591918813
  H        32.5256549823       14.1437047009        0.2926517927
  H        29.9009534518       12.5119879452       11.9319693762
  H        28.8825744584       10.6158621334       10.6760202166
  H        25.1978300146       11.1806691944       12.8219300550
  H        26.2275830274       13.0883011934       14.0712101852
  H        27.1766621030       11.6773051516        9.2342437404
  H        33.2790475473       14.1760228226       14.4097649937
  H        33.4065398671       14.4135058969        1.6341615920
  H        32.0074179517       18.4640268121       13.0605857401
  H        30.2338773133       14.1870612660        0.1175912394
  H        16.1182506294        2.9633550988        4.1348085140
  H        14.9531783550        4.8204861591        5.3274955898
  H        17.3661913893        7.6859414195        3.2150838893
  H        18.5148063134        5.8182841173        2.0152039136
  H        16.7533845336        5.7394028187        6.7766603882
  H        44.8283241119       32.1402589938        3.9820161199
  H        45.9376223988       30.3413930094        5.3114483820
  H        43.6823478843       27.3781916870        3.1577592235
  H        42.5995729914       29.1900055204        1.8152043370
  H        44.2303785938       29.4366698021        6.7739988911
  H        14.8512296704        8.5463075404        3.3684536264
  H        44.9000905510       32.2339313356       11.9269128912
  H        46.0249701554       30.4128949025       10.6473862757
  H        43.7631843371       27.4839790387       12.8399499920
  H        42.6453622099       29.3176178964       14.1189936501
  H        44.2684458791       29.4703777442        9.2130888718
  H        35.0896308797       26.6115499197       12.6251255558
  H        36.6048405285       35.1338406042        0.1858503168
  H        16.1436130409        3.0129139978       11.8989439002
  H        14.9740590701        4.8562710547       10.6832236950
  H        17.3955979989        7.7472360911       12.7505036699
  H        18.5426336601        5.8932303097       13.9782080571
  H        16.7644002204        5.7552855845        9.2142139518
  H        36.2778369013       34.4828281102       14.2679149756
  H        36.3797923193       34.2096191441        1.5052850071
  H        40.5799599266       33.2021383528       13.1484899973
  H        17.4705747863        1.9469800921       15.9689879985
  H        28.6888004961       19.0175749343        4.2915221657
  H        29.8032242786       19.9973024634       11.6845382708
  H        31.8658893023       16.2163812772       11.3261296823
  H        30.9206953747       15.4984734576        4.4543020412
  H        28.4965819391       17.4475372794        7.0652743107
  H        29.2885131811       15.3465867880        6.5337869329
  H        31.5802892913       20.3756344066        9.0228580228
  H        32.8551319230       17.2294870331        9.5997927419
  H        28.6620711172       17.3200222551        9.7138124336
  H        18.8528196153        0.8688213925        4.3403824346
  H        40.5277616636       35.2292764282       11.9470240313
  H        42.3234263064       34.4182839640       11.5858787697
  H        22.0879044662        0.6916855060        4.3568613645
  H        11.5968549173       18.7131921575        4.3877797031
  H        52.2649406124       18.4312114370       11.6720554848
  H        49.2551904329       16.4770626266       11.5793921914
  H        10.1504299182       15.7981140325        4.2979312785
  H        50.8501512449       17.6924693393       11.9491554866
  H        10.0463729461       17.3945646440        4.0570238140
  H        20.2140010287        0.0020921680        4.0472172777
  H        39.1833280687       36.1243604853       11.6812955764
 Ni        30.8915102850       18.1729642500       10.7353037666
 Ni        31.0572820923       16.3314445394        8.0060481122
 Ni        29.9337507091       19.1614083225        7.7466672176
 Ni        29.8970094275       17.3608525594        5.2437205994
  O        10.6499395573       14.3651599231       13.4806906593
  O        12.6132181375       14.6575193389       14.5787556073
  O        49.1480434698       16.8459046071       15.9845451038
  O        50.3503031257       20.9357846630       13.6429227473
  O        48.3486307886       20.5933203092       14.6607832538
  O        11.0515548816       17.0538393782       14.4955328664
  O        50.3210497697       20.8816254206        2.4119382015
  O        48.3468264562       20.5867763557        1.3322071539
  O        49.5439930514       18.2484974268        2.0733503720
  O        12.3591630705       18.6245872446        0.0048319910
  O        48.6932560226       14.1485945735       14.7461689129
  O         8.2099134767       14.2103451470        1.3276490168
  O        10.7354046689       14.5067500587        2.6694197047
  O        12.5718679516       14.5828163935        1.3336109244
  O        22.8447720132        2.0431011785       13.4822398679
  O        21.6057845901        3.5927344760       14.5844589808
  O        42.0580846136       34.1371852238       15.9738234672
  O        37.9818907097       33.1371347933       13.5673100875
  O        39.2186458207       31.5764903918       14.6620663455
  O        20.3082410447        1.0394162088       14.4968563272
  O        38.0245297241       33.1854359188        2.4202148975
  O        39.2194582938       31.5841576442        1.3310576802
  O        40.6523511863       33.7694045435        2.0654066773
  O        18.2554352350        1.3760368326        0.0018949210
  O        44.6222304808       35.1005268853       14.7536338042
  O        24.2053394099        0.0001051814        1.3259437457
  O        22.7530160701        2.0574441154        2.5888812098
  O        21.6243848756        3.5960413232        1.3475404840
  O        27.4964792540       18.7503161527       13.4935495764
  O        26.7645992665       16.9319633823       14.6516179931
  O        30.6588212120       19.3524762198        0.0716754687
  O        33.5484554628       16.3336324701       13.6554503766
  O        34.2751022247       18.1830027518       14.7459731946
  O        29.5718768377       17.0607652674       14.5677170667
  O        33.5644006063       16.3482141735        2.4422749157
  O        34.2981016411       18.2431052674        1.4150351205
  O        31.6449363464       18.3156921553        2.2342218731
  O        30.3224746398       15.1543234299        0.1159198671
  O        28.5575369317       21.0326028795       14.8894634642
  O        28.5181434639       20.9543925753        1.4177029270
  O        27.4580336288       18.6764562169        2.6655071799
  O        26.6942849430       16.9284966806        1.4226641518
  O        13.1487350704       18.6929023018        2.5925984786
  O        13.9192966870       16.9162248614        1.4101413558
  O        50.5962805540       19.3502277972        0.0254470606
  O        47.6830193372       16.3272365532        2.4226303566
  O        46.9522583657       18.1760472975        1.3293212656
  O        11.0698391014       17.0155382630        1.4947907381
  O        47.6749374009       16.3358107053       13.6477754633
  O        46.9272941063       18.2359193183       14.6596359382
  O        49.5687462035       18.3177208906       13.9771015757
  O        10.3187165705       15.1001338832        0.0022236193
  O        52.6708016668       21.0278727516        1.2469229721
  O        12.1468786667       20.8911698594       14.6681280778
  O        13.1083942146       18.6136263487       13.3205778105
  O        13.9573590418       16.9871144684       14.6604360720
  O        29.9898476780       14.4380462183        2.7358771091
  O        28.0891337577       14.6558849034        1.5002516546
  O        32.1420735405       16.8697534957        0.1389064339
  O        30.9638339224       20.9466775668        2.4170428464
  O        32.9442262062       20.6021219582        1.3459440202
  O        29.5687707486       17.0814208529        1.5687925893
  O        30.8757889134       20.9512422594       13.6611728978
  O        32.8785559753       20.5855044074       14.6644164039
  O        31.6728694415       18.2425184295       13.9704648403
  O        28.2912716630       18.6754160203        0.0812524207
  O        32.4943692489       14.2147420119        1.3520395581
  O        32.4004074045       14.2151548379       14.8223487626
  O        29.8676267937       14.5013529922       13.4174318424
  O        28.0434943121       14.5809026840       14.7545043172
  O        17.8891655848        1.9666173644        2.6679106330
  O        18.9562202027        3.5271325828        1.4130721734
  O        39.1687103214       34.1388311708        0.0023095605
  O        43.2801845535       33.0589809497        2.3368015590
  O        42.0345767369       31.5064881289        1.2467758344
  O        20.3175527412        1.0366605649        1.4855227913
  O        43.2759891654       33.1825278537       13.5696713545
  O        42.0052647977       31.5841259770       14.5777703780
  O        40.5789381173       33.7748545036       13.9305863053
  O        22.3672118816        1.3845683686        0.0029907018
  O        36.6727800205       35.0997557357        1.2384115969
  O        16.4455238467        0.0641535923       14.6631819301
  O        17.9363872354        2.0433862915       13.3213195757
  O        18.9190091965        3.5931130879       14.6608896356
  O        29.8005021886       19.0920656729       12.0533187971
  O        29.6486336925       18.9704499612        4.0964789225
  O        31.3778643669       15.8723880433       12.1478899727
  O        31.1567200356       16.3771945401        4.0884113783
  O        31.9752142865       16.8392798726        9.7537308932
  O        29.5214731371       17.5769684783        9.3299015146
  O        30.1155423793       15.8437631094        6.3976474872
  O        31.4841438632       17.9949672521        7.1341378285
  O        30.7781227786       19.8635990841        9.2397723518
  O        28.7662141636       18.1955620321        6.4886565563
  O        39.4567496622       35.2438395715       11.9968490686
  O        19.1409145793        0.0044199933        3.9956727153
  O        41.9696462220       35.1726711540       12.0821775376
  O        21.6912431301       -0.0693936383        3.9009430186
  O        51.3651485377       18.6142988813       12.0002864012
  O        10.7511604812       18.7471497423        3.9100369957
  O        50.0796358535       16.4127751885       12.0866211220
  O         9.5247437242       16.4830463630        3.9962637571
 Zr         9.2969624240       16.0528646954       14.1773309515
 Zr        49.8364590276       16.0067530699        1.7514437449
 Zr        22.0728373414        0.0289365220       14.1841133159
 Zr        42.4606208804       35.1525400302        1.8059156060
 Zr        29.6110357747       19.0951247715       14.2370521536
 Zr        29.5825473240       19.1766818065        1.8697581414
 Zr        11.0382168196       19.0521214257        1.8328253164
 Zr        11.0441587109       19.1549691534       14.2457884660
 Zr        31.3293142073       16.1103764461        1.9422656921
 Zr        31.4176755423       16.0347864958       14.3813545207
 Zr        18.6006872236       -0.0021866059        1.7685024887
 Zr        18.5059685609       -0.0086092121       14.2085119473
 Zr        12.3022789227       16.3236680398       15.9851420283
 Zr        48.6169386074       18.8333595523        0.0151921808
 Zr        20.3143957522        2.4724515762       15.9854052236
 Zr        40.6429876965       32.6863631597       15.9731692812
 Zr        28.3389051288       16.3552917123        0.0854774694
 Zr        32.6290857643       18.8611516531        0.0566253414
  H        32.3684180443       18.3820414438        7.2999537510
  O        30.7705230919       14.3235093346        9.1483515034
  H        31.3054858851       14.8650557181        9.7607429057
  H        29.9606150174       14.1054843808        9.6640919344
  O        32.9719893271       15.2156759321        6.8610785610
  H        33.7596236795       15.7658747182        7.0069611676
  H        32.5147685582       15.6607912654        6.1143584866
  O        27.7419469932       20.2355296541        8.0731246714
  H        27.5940143111       19.5046494741        7.4366982832
  H        27.6623648478       19.8236380895        8.9522320861
  O        30.3671570387       20.6685934025        6.2293382113
  H        30.1808834588       20.1578003318        5.3924791204
  H        29.5917044643       21.2344203310        6.3871378038
  H        30.7163630143       15.1825914819       11.9240339764
  H        32.1076061434       18.6095084822       11.4663785721
