     586
 i =      307, E =     -4847.8120655083
  C        11.8586278788       14.0537019974       13.7364417182
  C        12.4561690001       12.8907052699       13.0180445694
  C        11.7044816528       12.1718226718       12.0763739559
  C        12.2808225698       11.1095909049       11.3840033972
  C        13.6213410975       10.7397265706       11.6118671935
  C        14.3545208979       11.4432633094       12.5853349481
  C        13.7816586841       12.5082819756       13.2768063325
  C        14.2609021780        9.6490438360       10.8385127026
  C        14.2564919834        9.6570335074        9.4168115208
  C        13.7435495304       10.7592580521        8.6628956963
  C        49.1267239604       21.2332636633       13.8745120075
  C        48.5499448347       22.4011368164       13.1474249062
  C        49.3001119471       23.0686971760       12.1666858074
  C        48.7331729921       24.1078479261       11.4335212079
  C        47.4024833213       24.5091800538       11.6618385712
  C        46.6713320605       23.8599654017       12.6749839136
  C        47.2337863784       22.8150509945       13.4043248511
  C        46.7723009833       25.5869192863       10.8645672735
  C        46.7615251980       25.5574349600        9.4428024197
  C        47.2615841803       24.4423988661        8.6993110423
  C        14.8604032004        8.5706558713        8.7035757825
  C        14.8913214665        8.5969030666       11.5151857013
  C        49.1131605559       21.2034278420        2.1504143470
  C        48.5277787671       22.3647418845        2.8775852906
  C        49.2671293969       23.0257141890        3.8702422306
  C        48.6907839755       24.0602809026        4.6016642284
  C        47.3602471561       24.4567880122        4.3636627750
  C        46.6396652737       23.8115655876        3.3404626146
  C        47.2132346857       22.7756481357        2.6087073103
  C        46.7218402087       25.5317820784        5.1546873438
  C        46.7337488875       25.5282465692        6.5763877132
  C        47.2493459844       24.4291039808        7.3327611329
  C        40.6293311598       17.1288595036        7.3260902721
  C        40.6532479583       17.1599325770        4.5170373698
  C        11.8829720539       14.0866426834        2.2905477923
  C        12.4723726733       12.9107813002        2.9948561014
  C        11.7148355113       12.1775089004        3.9208649034
  C        12.2814319947       11.0950730699        4.5893426549
  C        13.6202657623       10.7214200928        4.3575690239
  C        14.3582795746       11.4370680967        3.3968722060
  C        13.7928373968       12.5182286781        2.7241602080
  C        14.2538622473        9.6246418607        5.1279735497
  C        14.2528324653        9.6447275134        6.5498105590
  C        13.7430112031       10.7537268291        7.2968489759
  C        22.5106737466        3.2451681967       13.7474092045
  C        23.2220015471        4.3532282414       13.0463661109
  C        24.2197260526        4.0773322570       12.0998752076
  C        24.8423218797        5.1195036575       11.4172358186
  C        24.4827675750        6.4600470857       11.6607512752
  C        23.5131877597        6.7276692394       12.6442670557
  C        22.8862070819        5.6872410217       13.3252609322
  C        25.0834623552        7.5687279242       10.8833955517
  C        25.0557738877        7.5595122650        9.4616341288
  C        24.3562890314        6.5572668847        8.7167089255
  C        38.3036804149       31.9280284115       13.8423694468
  C        37.5789401807       30.8368322304       13.1310182397
  C        36.6240576036       31.1362466614       12.1471982774
  C        36.0133948759       30.1129012350       11.4272931952
  C        36.3424010347       28.7646377394       11.6695259565
  C        37.2668923645       28.4728873699       12.6902753044
  C        37.8819666974       29.4946904422       13.4086397344
  C        35.7485507234       27.6687146699       10.8711522346
  C        35.7856427935       27.6813036936        9.4498750572
  C        36.4858155979       28.6874603649        8.7124391632
  C        25.6762779711        8.6294615486        8.7395084726
  C        25.6765072562        8.6478778853       11.5517504900
  C        38.3283696417       31.9622510720        2.1598382149
  C        37.6071937813       30.8879154360        2.8980536051
  C        36.6820316862       31.1928092337        3.9080611407
  C        36.0761146853       30.1711178333        4.6362983765
  C        36.3816114590       28.8199533959        4.3775631943
  C        37.2824202864       28.5252760659        3.3359935856
  C        37.8904192634       29.5431410043        2.6089959761
  C        35.7828643905       27.7168196391        5.1618413449
  C        35.8029193408       27.7059900717        6.5834877879
  C        36.4938869480       28.6995339873        7.3458569354
  C        46.1357234184       26.6208731011        7.2865132385
  C        46.0876444554       26.5799849341        4.4786176938
  C        22.4590239801        3.2546204628        2.2615203161
  C        23.1506474979        4.3645969661        2.9844043438
  C        24.1541048122        4.0805054929        3.9239078410
  C        24.7793139656        5.1123563796        4.6195418693
  C        24.4202628476        6.4565425229        4.3969342494
  C        23.4397417171        6.7341565804        3.4260468009
  C        22.8099406247        5.7024690753        2.7312189505
  C        25.0477468281        7.5563086687        5.1701874368
  C        25.0381249145        7.5524127936        6.5926458620
  C        24.3458126316        6.5552769114        7.3500334185
  C        26.6209003911       17.8623550035       13.7822610162
  C        25.3107537548       17.9072712488       13.0609704606
  C        25.0581360538       18.8967498488       12.0973084966
  C        23.8466664155       18.9173654365       11.4084858393
  C        22.8509291842       17.9509506340       11.6603190657
  C        23.0999618435       16.9852722531       12.6538853996
  C        24.3131997672       16.9599007106       13.3409414466
  C        21.5784204826       17.9351718400       10.8946236848
  C        21.5783538736       17.9100582972        9.4720166460
  C        22.7835692178       17.7851471952        8.7111833172
  C        34.4230523896       17.2315619562       13.9030035294
  C        35.7086428343       17.1746121798       13.1494303562
  C        35.9075752549       16.2050954571       12.1544515876
  C        37.0914962471       16.1822611602       11.4217376969
  C        38.1081872628       17.1263234365       11.6663819222
  C        37.9096109509       18.0776903207       12.6846317066
  C        36.7231420961       18.1066812935       13.4133440106
  C        39.3670514591       17.1258655156       10.8867700666
  C        39.3671076030       17.1465577169        9.4653708638
  C        38.1626830218       17.2803458232        8.7052880900
  C        20.3318056841       17.9259706600        8.7631835168
  C        20.3530951884       17.9392141216       11.5764096893
  C        34.4717671464       17.2498634032        2.1821126020
  C        35.7756080954       17.1694032655        2.9039167531
  C        35.9826863608       16.1953282755        3.8920954138
  C        37.1679869983       16.1766086525        4.6215420123
  C        38.1754771635       17.1309324358        4.3812135291
  C        37.9752176533       18.0789172167        3.3603612391
  C        36.7873378308       18.1033418055        2.6347518572
  C        39.4207941880       17.1495127118        5.1788665123
  C        39.3940504253       17.1599240733        6.5999270721
  C        38.1753369211       17.2845074221        7.3388430782
  C        35.1844692384       26.6202767142        7.2874561247
  C        35.1921012237       26.6468437955        4.4786648062
  C        26.5708706361       17.8251318682        2.3315588380
  C        25.2567312856       17.8711313007        3.0375935242
  C        24.9933404956       18.8737043091        3.9830686624
  C        23.7754929120       18.8985394381        4.6565840378
  C        22.7917956802       17.9205074494        4.4081897997
  C        23.0490807639       16.9432708549        3.4295627199
  C        24.2677056411       16.9164686991        2.7543725833
  C        21.5285181207       17.9005524976        5.1814947392
  C        21.5528716785       17.8906264408        6.6030425371
  C        22.7715498214       17.7756637554        7.3449325794
  C        14.0465632259       17.8284271715        2.2942940548
  C        15.3508099080       17.8841451074        3.0203244505
  C        15.6076553352       18.8856672972        3.9696587658
  C        16.8165304791       18.9049330498        4.6628942474
  C        17.8029799431       17.9255462188        4.4289177770
  C        17.5508701024       16.9482935428        3.4475089383
  C        16.3414220899       16.9243447009        2.7559895139
  C        19.0723109104       17.9073994943        5.1976527745
  C        19.0714618361       17.9031971840        6.6201680625
  C        17.8646401889       17.8033186641        7.3815367377
  C        46.8061198072       17.2194440560        2.1648536242
  C        45.5182725937       17.1601258520        2.9131407813
  C        45.3139626409       16.1846843585        3.9012738552
  C        44.1338240780       16.1690709321        4.6397175217
  C        43.1287125322       17.1290993992        4.4116160133
  C        43.3307690982       18.0846617976        3.3974539639
  C        44.5114329580       18.1041351834        2.6599468011
  C        41.8753764563       17.1418066660        5.1989616932
  C        41.8779241483       17.1387150814        6.6208136536
  C        43.0850236413       17.2278677996        7.3831377076
  C        20.3184030263       17.9150117898        7.3282834041
  C        20.2963136780       17.8890495558        4.5151309339
  C        46.7829852713       17.2299462360       13.8849346475
  C        45.4772273791       17.1207050239       13.1734123646
  C        45.2575258253       16.1221693693       12.2122328571
  C        44.0678829998       16.0938042194       11.4882443948
  C        43.0671723844       17.0604844141       11.7080636514
  C        43.2764417021       18.0271918755       12.7095129905
  C        44.4673862149       18.0622963008       13.4282574964
  C        41.8217717428       17.0858688009       10.9085503592
  C        41.8507459700       17.1081213313        9.4874681252
  C        43.0721558328       17.2107681301        8.7496253594
  C        46.1535032595       26.6373043303        8.7210508971
  C        46.1621159183       26.6558995964       11.5306993994
  C        14.0457351781       17.8318079948       13.7037171026
  C        15.3670873379       17.9060779416       13.0134488839
  C        15.6402445244       18.9200764300       12.0832396757
  C        16.8693751328       18.9569372358       11.4284995164
  C        17.8532342100       17.9790460179       11.6782911298
  C        17.5870042475       16.9942500170       12.6469355584
  C        16.3598278446       16.9567279414       13.3050048669
  C        19.1206793145       17.9533438494       10.9093867546
  C        19.0966448660       17.9256911108        9.4879392407
  C        17.8769542231       17.8134808258        8.7475295063
  C        28.8024262056       14.0919769049        2.3920467620
  C        28.1864296335       12.9195134908        3.0792151711
  C        28.9077977495       12.1736752035        4.0228074709
  C        28.3052500923       11.1000366233        4.6733020878
  C        26.9671350535       10.7489194956        4.4036646549
  C        26.2669577254       11.4751117065        3.4238769185
  C        26.8675575973       12.5490788270        2.7718974282
  C        26.2963507677        9.6702437701        5.1645480624
  C        26.2814734044        9.6993473626        6.5850396539
  C        26.7832060108       10.8147314823        7.3279791363
  C        32.1837732525       21.2394960375        2.1470639631
  C        32.7824936730       22.4009651032        2.8655155112
  C        32.0511665293       23.0582460254        3.8665349692
  C        32.6290870205       24.0940636139        4.5931666352
  C        33.9539185358       24.4990534505        4.3403157024
  C        34.6672361684       23.8593902078        3.3090013672
  C        34.0920595184       22.8182812746        2.5837210474
  C        34.5898487060       25.5705135621        5.1387582480
  C        34.5976411624       25.5335849360        6.5600631502
  C        34.1098936483       24.4085101131        7.2971613047
  C        25.6723358324        8.6223488518        7.3053232529
  C        25.6623085210        8.6176937985        4.4923720914
  C        32.1124111543       21.2219112466       13.8614143083
  C        32.7136245421       22.3595913473       13.1088878864
  C        32.0015678894       22.9900375951       12.0774016291
  C        32.5887367299       24.0196335087       11.3463940996
  C        33.9020672649       24.4458493250       11.6263608658
  C        34.5979939541       23.8240453619       12.6806367601
  C        34.0152706646       22.7901194769       13.4082455039
  C        34.5476326323       25.5261343353       10.8467679333
  C        34.5768590218       25.5111772834        9.4251627356
  C        34.1003201545       24.3979299665        8.6636365791
  C        40.6154056338       17.1172875305        8.7603525033
  C        40.5886223383       17.1117257771       11.5700832599
  C        28.7114518646       14.1050605231       13.7790183980
  C        28.0994564138       12.9609164518       13.0379456812
  C        28.8427777420       12.2420840145       12.0882227461
  C        28.2623653916       11.1802281962       11.3978204256
  C        26.9234184761       10.8084121905       11.6351408371
  C        26.1972294082       11.5149325113       12.6115884765
  C        26.7757117711       12.5778232835       13.3029301151
  C        26.2849013165        9.7101012143       10.8707119494
  C        26.2776209265        9.7193272776        9.4496438829
  C        26.7788550381       10.8251012508        8.6933824681
  C        18.1351833929        3.1807769913        2.3221793474
  C        17.4057414565        4.2780424374        3.0207173690
  C        16.3906028396        3.9996377771        3.9488514432
  C        15.7428530164        5.0396019843        4.6123751373
  C        16.0941921877        6.3833868189        4.3721837733
  C        17.0828838564        6.6529261023        3.4076944242
  C        17.7319598402        5.6156088550        2.7426071069
  C        15.4700842010        7.4911586505        5.1352707399
  C        15.4854422158        7.4904979493        6.5569865249
  C        16.1869691844        6.4968942354        7.3102042524
  C        42.9458853653       31.8593280393        2.0779711807
  C        43.6461522691       30.7717661443        2.8219500444
  C        44.5920490309       31.0930117011        3.8077175114
  C        45.1977045598       30.0874204808        4.5553304101
  C        44.8708634485       28.7344005138        4.3407566648
  C        43.9445756994       28.4201395870        3.3279513897
  C        43.3357866294       29.4253169264        2.5799474291
  C        45.4885138461       27.6551276880        5.1439195310
  C        45.4929357785       27.6809436357        6.5655985997
  C        44.8057375363       28.6889249480        7.3122058719
  C        14.8567138087        8.5631370209        7.2693479553
  C        14.8747910393        8.5629494950        4.4566927719
  C        42.9464382321       31.9613027398       13.8037964266
  C        43.6915017879       30.8853001276       13.0902212430
  C        44.6564726936       31.1911651415       12.1182516109
  C        45.2779413751       30.1715596262       11.4005427782
  C        44.9537553829       28.8212668497       11.6378492670
  C        44.0197374021       28.5236295232       12.6481345934
  C        43.3915019838       29.5404153142       13.3602906866
  C        45.5629068382       27.7239257152       10.8526219491
  C        45.5334220989       27.7173937622        9.4313296097
  C        44.8270388231       28.7075862289        8.6783884610
  C        35.1746478459       26.6084204642        8.7218869996
  C        35.1452506558       26.5918800992       11.5307303847
  C        18.1482565951        3.2467576991       13.7015188665
  C        17.4294512918        4.3436273150       12.9924162075
  C        16.4147208020        4.0522909110       12.0683476234
  C        15.7663839720        5.0829203459       11.3929631611
  C        16.1205384123        6.4282198638       11.6161168175
  C        17.1112037804        6.7116202662       12.5741234868
  C        17.7588912591        5.6827422840       13.2539092563
  C        15.4902283350        7.5239774841       10.8436320809
  C        15.4963982168        7.5074369043        9.4224955500
  C        16.1930795040        6.5056639784        8.6758099609
  H        10.6723703062       12.4660334304       11.8993617093
  H        11.6945164982       10.5511350144       10.6574551276
  H        15.3915222283       11.1685857621       12.7670947999
  H        14.3510682364       13.0715636993       14.0122403920
  H        13.3764928598       11.6313527881        9.1962286952
  H        50.3229360868       22.7489052120       11.9821731589
  H        49.3197473874       24.6233449237       10.6761717468
  H        45.6416694121       24.1603672786       12.8578217726
  H        46.6625737305       22.2895402780       14.1660819844
  H        47.6301026227       23.5760160385        9.2409987462
  H        14.8713054923        8.5880273389       12.6034865884
  H        50.2872836631       22.7030923476        4.0649563969
  H        49.2692506004       24.5759498157        5.3649662859
  H        45.6101213370       24.1084960752        3.1516566177
  H        46.6522584495       22.2532702143        1.8374020658
  H        47.6080946581       23.5519702267        6.8018688376
  H        40.6618393965       17.1270526309        3.4292648045
  H        48.6869588341       14.0950873828       15.7948668354
  H        10.6813278356       12.4665240441        4.0981669363
  H        11.6896008806       10.5245959377        5.3019454485
  H        15.3937419211       11.1592514163        3.2110186369
  H        14.3651463485       13.0877386605        1.9957138699
  H        13.3762470359       11.6223361745        6.7581536750
  H        47.9301193547       14.2186173869        1.7158065850
  H        47.7800785743       14.3741197789       14.4899959461
  H        49.0837497607       18.5525570499        2.8723813275
  H        10.4157695906       14.1343792567        0.0036789012
  H        24.4850269052        3.0397747519       11.9091597503
  H        25.6160653254        4.9046430201       10.6833293626
  H        23.2272257300        7.7592815644       12.8387915057
  H        22.1152343818        5.8845384116       14.0660958249
  H        23.7968619032        5.7999025745        9.2580682978
  H        36.3852220317       32.1784229026       11.9486910939
  H        35.2726360116       30.3488104180       10.6664482592
  H        37.5281621784       27.4347676224       12.8849144055
  H        38.6216361000       29.2766658143       14.1753025296
  H        37.0470709698       29.4403395839        9.2581900214
  H        25.7105009196        8.6341934169       12.6396752583
  H        36.4595645197       32.2361340438        4.1201627614
  H        35.3537517916       30.4119341203        5.4130721774
  H        37.5287101919       27.4858436895        3.1295717047
  H        38.6093838572       29.3212168895        1.8242368513
  H        37.0623635879       29.4611995929        6.8200631400
  H        46.1087252860       26.5871848585        3.3905742223
  H        44.6678984742       35.1159337642       15.8088083930
  H        24.4343674945        3.0428318586        4.0903371451
  H        25.5613759793        4.8863498424        5.3412589394
  H        23.1516710034        7.7679543103        3.2464694812
  H        22.0367171911        5.9121245284        1.9957562051
  H        23.7776252880        5.7968808347        6.8191851326
  H        44.9528097440       34.3894602197        1.6996503817
  H        44.9007074300       34.2064405775       14.4854269465
  H        40.6651345436       33.2081090898        2.8576695821
  H        23.1503826709        1.9571898908        0.0098897388
  H        25.8252353772       19.6448916553       11.9081894208
  H        23.6552810858       19.6923322704       10.6690956947
  H        22.3427248021       16.2311490680       12.8588169172
  H        24.5149142443       16.2011717402       14.0936219698
  H        23.7240037697       17.6667319485        9.2413515688
  H        35.1191157876       15.4795392820       11.9673643932
  H        37.2458920791       15.4229195438       10.6582043371
  H        38.6854868554       18.8161985441       12.8756036690
  H        36.5530855471       18.8552740828       14.1836655174
  H        37.2233508066       17.4111599146        9.2348562397
  H        20.3595188719       17.9830193249       12.6641331732
  H        35.1962043836       15.4695996660        4.0855387457
  H        37.3263316335       15.4192548128        5.3861203081
  H        38.7470374425       18.8219907158        3.1705971995
  H        36.6097923921       18.8537355673        1.8679130560
  H        37.2452693948       17.4159631096        6.7934451790
  H        35.1527973790       26.6789964433        3.3914970189
  H        28.5057446544       21.0746376781       15.8691485165
  H        25.7546846041       19.6266613708        4.1729805270
  H        23.5714638633       19.6804147540        5.3849582690
  H        22.2973396750       16.1819376183        3.2315743537
  H        24.4825509223       16.1505356990        2.0130213456
  H        23.7029791086       17.6505013347        6.8006810281
  H        28.9813888204       21.7328185101        1.7596801098
  H        29.1927227615       21.7239236165       14.5626399698
  H        32.1325090493       18.6031446831        2.9585684942
  H        27.4104799659       19.0729571740        0.0900561581
  H        14.8494991022       19.6447501576        4.1489578755
  H        17.0118194403       19.6879493189        5.3924781461
  H        18.3019646322       16.1842515172        3.2576283742
  H        16.1353672536       16.1565119764        2.0140693572
  H        16.9222252359       17.6865078041        6.8543588632
  H        46.0968885212       15.4522353750        4.0832403697
  H        43.9751673703       15.4045841089        5.3971041099
  H        42.5625879782       18.8339475882        3.2178405535
  H        44.6840340690       18.8558947388        1.8933666300
  H        44.0283760147       17.3416424934        6.8567109077
  H        20.2900236278       17.9204048654        3.4270414019
  H        46.0352436820       15.3832858841       12.0328400807
  H        43.9018350651       15.3195980794       10.7422863341
  H        42.5091974761       18.7779558927       12.8869650942
  H        44.6495486864       18.8288507454       14.1774692368
  H        44.0056932154       17.3102311375        9.2958275474
  H        46.1986271176       26.6822445614       12.6181606073
  H        52.7411521277       21.0626937002        0.1998108354
  H        14.8793893879       19.6730672619       11.8898576136
  H        17.0800777174       19.7461845488       10.7100151589
  H        18.3380182988       16.2329715371       12.8477618073
  H        16.1390065986       16.1833751338       14.0366836208
  H        16.9437739089       17.7043413775        9.2919130016
  H        52.3226928781       21.6733716634       14.2891014550
  H        52.0132887175       21.7020975541        1.5008168516
  H        49.0667289622       18.6074372578       13.1991257374
  H        13.2474447169       19.0164264163       15.9722996422
  H        29.9386329117       12.4499862714        4.2319016634
  H        28.8655320438       10.5198221824        5.4033084824
  H        25.2328369491       11.2135514058        3.2091409738
  H        26.3255547086       13.1321437484        2.0313280521
  H        27.1456277958       11.6819917949        6.7843168480
  H        31.0358792093       22.7291228571        4.0726111313
  H        32.0580842314       24.6023743650        5.3669033833
  H        35.6927797767       24.1629367724        3.1089554981
  H        34.6484042731       22.2981154245        1.8073867053
  H        33.7649906240       23.5348255046        6.7513999447
  H        25.6932415385        8.5961073578        3.4044586622
  H        30.9929761515       22.6527461147       11.8506919440
  H        32.0283955742       24.5109225810       10.5540783751
  H        35.6158081243       24.1395581638       12.9004407956
  H        34.5576099601       22.2879466562       14.2058855219
  H        33.7501592374       23.5153379009        9.1913986761
  H        40.5779111028       17.0696030464       12.6575942075
  H        32.5217687689       14.1459487367        0.2680950505
  H        29.8838732005       12.5133581377       11.9232517555
  H        28.8465615473       10.6162636867       10.6736507832
  H        25.1614689461       11.2401217627       12.8006458850
  H        26.2133172229       13.1371596559       14.0470482193
  H        27.1357305869       11.7012472007        9.2263898259
  H        33.2841764609       14.1718509624       14.4128011730
  H        33.4073967362       14.4190114774        1.6150065978
  H        32.0200812512       18.4754161910       12.9945843426
  H        30.2320880381       14.1930508482        0.0769823865
  H        16.1189045161        2.9631004533        4.1356346549
  H        14.9537417634        4.8201013110        5.3283753411
  H        17.3646189193        7.6858765902        3.2139680852
  H        18.5132888735        5.8182622209        2.0140071469
  H        16.7532789659        5.7393486977        6.7767415209
  H        44.8286413569       32.1400506607        3.9816928671
  H        45.9378202383       30.3410284679        5.3110743116
  H        43.6813776345       27.3781387396        3.1581900300
  H        42.5987370027       29.1899585086        1.8157077282
  H        44.2301674206       29.4365260244        6.7739005128
  H        14.8507569007        8.5460719845        3.3684795363
  H        44.9003237133       32.2338167538       11.9270720057
  H        46.0251050161       30.4126769076       10.6475314535
  H        43.7622580770       27.4839472544       12.8392643229
  H        42.6445452753       29.3175445160       14.1182618742
  H        44.2682747525       29.4702876178        9.2129691637
  H        35.0928049744       26.6088181394       12.6177064305
  H        36.6046625540       35.1337211473        0.1859377210
  H        16.1439978157        3.0126753748       11.8982375402
  H        14.9744168987        4.8559679906       10.6825114709
  H        17.3940547186        7.7471652742       12.7515999491
  H        18.5411255400        5.8931810553       13.9793633497
  H        16.7642660271        5.7552471187        9.2142604383
  H        36.2775635807       34.4826980874       14.2679717940
  H        36.3795425201       34.2097546042        1.5054886610
  H        40.5796501077       33.2016216657       13.1485908499
  H        17.4703081731        1.9465448400       15.9688726156
  H        28.7518247878       19.0303849050        4.3302596637
  H        29.7703727171       19.9434858728       11.6111986814
  H        31.8677761114       16.2994689792       11.2259784666
  H        30.9070591120       15.4442893356        4.4022367006
  H        28.3927926615       17.3713356761        6.9628528048
  H        29.2315479758       15.2856964814        6.5759865041
  H        31.5979958451       20.4297706693        9.0967065869
  H        33.1982767542       17.0319728725        9.6959390942
  H        28.9666716194       17.1568724302        9.4116372550
  H        18.8527417986        0.8688284403        4.3403420053
  H        40.5274928791       35.2293816303       11.9470974688
  H        42.3231076956       34.4179081553       11.5863314936
  H        22.0879357514        0.6917621478        4.3566397268
  H        11.5969420727       18.7131308486        4.3875262284
  H        52.2649601982       18.4310997333       11.6722946680
  H        49.2550083186       16.4774488379       11.5796162190
  H        10.1504813537       15.7982875596        4.2978539892
  H        50.8500592850       17.6924815313       11.9491897100
  H        10.0461954368       17.3945618020        4.0570687379
  H        20.2137721182        0.0020396219        4.0472646957
  H        39.1830966203       36.1243541441       11.6814792395
 Ni        31.1182612482       18.3024814503       10.6580815102
 Ni        31.1930037993       16.2694103429        7.9981457884
 Ni        29.9338144888       19.0836572602        7.8291251006
 Ni        30.1429578537       17.4031876131        5.3289977896
  O        10.6498928071       14.3651424151       13.4806711413
  O        12.6131722662       14.6575178999       14.5787762719
  O        49.1479313386       16.8459719581       15.9845341556
  O        50.3502123566       20.9359263293       13.6429827172
  O        48.3485272935       20.5933218233       14.6607867125
  O        11.0515253561       17.0539595742       14.4955206466
  O        50.3210104982       20.8816212581        2.4119140557
  O        48.3467547918       20.5867386246        1.3321717042
  O        49.5437396801       18.2484544366        2.0732929661
  O        12.3589889229       18.6246388884        0.0047989278
  O        48.6932058675       14.1486525102       14.7461343256
  O         8.2098930785       14.2103669273        1.3276209463
  O        10.7354197177       14.5067084433        2.6694661973
  O        12.5718422266       14.5828162670        1.3335637200
  O        22.8452130589        2.0447980974       13.4816144718
  O        21.6051887995        3.5925652060       14.5847162299
  O        42.0580306420       34.1370997284       15.9736843672
  O        37.9819315474       33.1367091714       13.5671238407
  O        39.2184664496       31.5762109194       14.6618287429
  O        20.3081893884        1.0391756119       14.4966304933
  O        38.0248921251       33.1861309266        2.4200058423
  O        39.2198738603       31.5846183043        1.3306889150
  O        40.6522687724       33.7692618287        2.0653490352
  O        18.2552724385        1.3757505654        0.0018394806
  O        44.6222096365       35.1005591448       14.7535435611
  O        24.2053546977        0.0000043151        1.3259609129
  O        22.7528810350        2.0576536947        2.5887104606
  O        21.6237543910        3.5954656041        1.3463277526
  O        27.4926468422       18.7488382987       13.4907448069
  O        26.7665962389       16.9299122960       14.6509401006
  O        30.6684044005       19.4028042833        0.0167478202
  O        33.5526810510       16.3301642992       13.6547235293
  O        34.2781604985       18.1832825827       14.7388993689
  O        29.5771137666       17.0620227054       14.5602489024
  O        33.6106205394       16.3319880588        2.4198893759
  O        34.3019737336       18.2489725274        1.4094405700
  O        31.6490373999       18.3156618181        2.1674929692
  O        30.3263228342       15.1596274555        0.0909868878
  O        28.5554778825       21.0327256704       14.8229227429
  O        28.5137131612       20.9558686697        1.4099392524
  O        27.4594724921       18.6771218334        2.6659405154
  O        26.6943471899       16.9300492404        1.4185287693
  O        13.1490030051       18.6928529277        2.5926591731
  O        13.9194304522       16.9161865286        1.4101075859
  O        50.5960047878       19.3501725990        0.0254363097
  O        47.6839052360       16.3268743806        2.4222885268
  O        46.9519821712       18.1757771226        1.3296250109
  O        11.0697835721       17.0155521149        1.4947890938
  O        47.6750315983       16.3357636805       13.6477877120
  O        46.9260107686       18.2357566361       14.6588077213
  O        49.5685062390       18.3177363017       13.9770703106
  O        10.3186317202       15.1002429005        0.0021560727
  O        52.6707681574       21.0278777742        1.2469395611
  O        12.1468245651       20.8911671614       14.6681109136
  O        13.1083833156       18.6136163757       13.3204492397
  O        13.9573424184       16.9870737613       14.6603029932
  O        29.9893368060       14.4383016276        2.7346140642
  O        28.0882443801       14.6558750830        1.4966561427
  O        32.1429487004       16.8621342606        0.0900000785
  O        30.9684621931       20.9508754968        2.4135112264
  O        32.9476890832       20.5992626680        1.3399538745
  O        29.5719819465       17.0775286585        1.5846547776
  O        30.8787816197       20.9525208731       13.6549357052
  O        32.8798003075       20.5868407705       14.6591235638
  O        31.6749130545       18.2422604169       13.9099804249
  O        28.2968489177       18.6768050208        0.0777466486
  O        32.4942452286       14.2146583581        1.3388512940
  O        32.4038427605       14.2130303817       14.8216458991
  O        29.8670023228       14.5090878876       13.4068092560
  O        28.0399632657       14.5866043321       14.7498030950
  O        17.8891736838        1.9665655594        2.6679389840
  O        18.9561779136        3.5270636479        1.4130766000
  O        39.1687524311       34.1388142072        0.0022330863
  O        43.2802420888       33.0589614199        2.3367200008
  O        42.0346049317       31.5064513357        1.2466774747
  O        20.3174867832        1.0364751922        1.4854843471
  O        43.2760788650       33.1825014633       13.5697768620
  O        42.0053167646       31.5840847754       14.5778659165
  O        40.5789345838       33.7747618678       13.9304002101
  O        22.3670606763        1.3843348450        0.0028814928
  O        36.6726916827       35.0997975277        1.2384273983
  O        16.4454029022        0.0640451844       14.6630739500
  O        17.9364005284        2.0432931590       13.3212483441
  O        18.9189272596        3.5930700686       14.6607845915
  O        29.7774122616       19.0504744567       12.0035807340
  O        29.6982944180       19.0450317899        4.0791508932
  O        31.4370265157       15.8912465097       12.0704405742
  O        31.3112259042       16.2731536279        4.0721476215
  O        32.2630014620       16.7776941534        9.7501725404
  O        29.8582044457       17.4429616298        9.1546262875
  O        30.1070012233       15.6684825525        6.4107394890
  O        31.4232417101       17.9367278283        6.8272946852
  O        30.7970467166       19.9322834574        9.3239578517
  O        28.6761252614       18.1777443515        6.4990928967
  O        39.4566507831       35.2438113513       11.9968472691
  O        19.1408312305        0.0043940236        3.9957257289
  O        41.9698158918       35.1728225530       12.0822019485
  O        21.6912901871       -0.0694045040        3.9008789604
  O        51.3651325585       18.6142977078       12.0003355787
  O        10.7511372602       18.7471764125        3.9099797800
  O        50.0795694813       16.4127907003       12.0866389441
  O         9.5245786241       16.4830759224        3.9963069989
 Zr         9.2964964090       16.0530475503       14.1772888563
 Zr        49.8362241933       16.0068087248        1.7514622769
 Zr        22.0727166820        0.0287295487       14.1842122825
 Zr        42.4603472703       35.1521118367        1.8057043912
 Zr        29.6224745697       19.0858558775       14.1813691216
 Zr        29.5888996375       19.1984303680        1.8473586380
 Zr        11.0378719167       19.0520943883        1.8327329688
 Zr        11.0437207116       19.1550027588       14.2459478773
 Zr        31.3522774728       16.1065447896        1.9105933336
 Zr        31.4244498865       16.0381433235       14.3385551780
 Zr        18.6004457212       -0.0024778842        1.7685522940
 Zr        18.5055990482       -0.0092887902       14.2084066523
 Zr        12.3019007531       16.3238663995       15.9851255096
 Zr        48.6159823501       18.8331619227        0.0149906987
 Zr        20.3136934244        2.4716192775       15.9851305382
 Zr        40.6426352086       32.6857167934       15.9729233090
 Zr        28.3504768188       16.3648568749        0.0855823760
 Zr        32.6221558946       18.8623430794        0.0280520919
  H        32.2889477162       18.3455911618        6.6687628984
  O        30.9313618017       14.4295818603        9.1589769710
  H        31.5469797569       14.7708198436        9.8431719555
  H        30.0722939101       14.3224783799        9.6009463663
  O        32.7886551162       15.3154636229        6.9019977529
  H        32.5922894031       15.7125555858        6.0224874871
  H        32.4307928289       14.4128173612        6.8215801378
  O        27.8697692127       20.1561574906        8.1577046653
  H        27.6726992886       19.4416066083        7.5039398216
  H        27.5519484354       19.8418245597        9.0197514479
  O        30.3275201270       20.5881691514        6.3276881066
  H        30.1454384010       20.1436620571        5.4456301992
  H        29.6204131296       21.2452642168        6.4426815580
  H        30.5837758584       15.4682202668       11.8593926787
  H        32.2739295738       18.7713358445       11.5091241806
