     586
 i =      290, E =     -4847.8466317737
  C        11.8587566509       14.0535341167       13.7363312164
  C        12.4562533600       12.8906745087       13.0178099980
  C        11.7044338052       12.1717276265       12.0762573229
  C        12.2806997224       11.1095132717       11.3838098289
  C        13.6213240629       10.7397229654       11.6112892904
  C        14.3546359954       11.4433544815       12.5846196559
  C        13.7818628050       12.5083485996       13.2762192144
  C        14.2606470040        9.6488271494       10.8379826401
  C        14.2555932753        9.6563223728        9.4162582372
  C        13.7422826255       10.7582404036        8.6621574050
  C        49.1268700885       21.2332493783       13.8744489264
  C        48.5500744891       22.4011615193       13.1473488226
  C        49.3000907708       23.0685682260       12.1664106553
  C        48.7330814471       24.1076662367       11.4332070337
  C        47.4024839214       24.5091293904       11.6617714193
  C        46.6715292620       23.8601587019       12.6752132652
  C        47.2340503841       22.8152845862       13.4045477165
  C        46.7721193025       25.5867873381       10.8645446374
  C        46.7610162129       25.5572020393        9.4427932957
  C        47.2609941073       24.4421718788        8.6992343025
  C        14.8592391534        8.5697258961        8.7031067228
  C        14.8915364363        8.5970018161       11.5147412787
  C        49.1131653263       21.2034665546        2.1503936578
  C        48.5277219336       22.3648584712        2.8775719204
  C        49.2668660363       23.0256623772        3.8704790352
  C        48.6904459857       24.0602132347        4.6019030269
  C        47.3600345063       24.4569582405        4.3636058481
  C        46.6397443093       23.8120242596        3.3400134346
  C        47.2133867616       22.7761317778        2.6082711307
  C        46.7214794679       25.5318712889        5.1546574983
  C        46.7331243150       25.5281167126        6.5763690422
  C        47.2487153864       24.4289246179        7.3326842026
  C        40.6360686165       17.1185563472        7.3213932671
  C        40.6620051756       17.1857364708        4.5120373558
  C        11.8829040239       14.0862877001        2.2904700874
  C        12.4717378685       12.9099992232        2.9944114810
  C        11.7138478693       12.1768992235        3.9203162141
  C        12.2798871577       11.0940384907        4.5885635576
  C        13.6185584669       10.7197321879        4.3567898564
  C        14.3568670401       11.4351361436        3.3961084192
  C        13.7919918617       12.5167444018        2.7236031968
  C        14.2517507676        9.6227317861        5.1272995071
  C        14.2509030818        9.6431142402        6.5491619900
  C        13.7413395334       10.7523038739        7.2960947293
  C        22.5117895498        3.2449639561       13.7467045673
  C        23.2262580636        4.3499337278       13.0450588451
  C        24.2217982970        4.0684545895       12.0976853550
  C        24.8498714354        5.1067745182       11.4145114632
  C        24.4985097258        6.4494784801       11.6581446113
  C        23.5305930521        6.7225032429       12.6420115654
  C        22.8978771407        5.6858678150       13.3236513119
  C        25.1078740998        7.5543923606       10.8821439032
  C        25.0832951225        7.5466531388        9.4603708347
  C        24.3780956708        6.5500101935        8.7134536367
  C        38.3041947343       31.9290431496       13.8430200135
  C        37.5799340651       30.8377570670       13.1316095653
  C        36.6230872119       31.1377113302       12.1501402136
  C        36.0122021514       30.1144934714       11.4305799366
  C        36.3435557110       28.7667693394       11.6715930075
  C        37.2708123379       28.4743210630       12.6893342915
  C        37.8859429905       29.4961013475       13.4074016870
  C        35.7468049010       27.6719353891       10.8749394483
  C        35.7790298729       27.6853246039        9.4538098491
  C        36.4821133218       28.6890082215        8.7157143636
  C        25.7127042546        8.6130595007        8.7403935389
  C        25.7066043211        8.6288937531       11.5526962678
  C        38.3288392863       31.9621976192        2.1613824771
  C        37.6074903287       30.8875317322        2.9008562292
  C        36.6811878655       31.1929707765        3.9096499611
  C        36.0742010213       30.1719061418        4.6382033996
  C        36.3794909401       28.8203257602        4.3812214457
  C        37.2821388453       28.5249346676        3.3414046464
  C        37.8912766587       29.5423540672        2.6142144648
  C        35.7775067601       27.7184399489        5.1657946125
  C        35.7947789795       27.7090412005        6.5875845003
  C        36.4894661438       28.7005266991        7.3492204983
  C        46.1350601686       26.6206862572        7.2865718239
  C        46.0874629361       26.5802489959        4.4786600053
  C        22.4618519229        3.2557498422        2.2622541880
  C        23.1586401279        4.3641788480        2.9839263536
  C        24.1644999253        4.0773052396        3.9204996045
  C        24.7958457426        5.1067955534        4.6145404401
  C        24.4416748584        6.4529893183        4.3946148192
  C        23.4587480517        6.7332855257        3.4265940755
  C        22.8227595754        5.7039502665        2.7330676274
  C        25.0757781526        7.5498785559        5.1684472575
  C        25.0677571554        7.5436694053        6.5911529439
  C        24.3692174254        6.5496135694        7.3468121482
  C        26.6180364370       17.8613882429       13.7810621295
  C        25.3102426301       17.9050158486       13.0559207348
  C        25.0601698192       18.8912501385       12.0884495456
  C        23.8480996860       18.9122455002       11.4009441759
  C        22.8502376159       17.9494420816       11.6576238246
  C        23.0977256413       16.9858624982       12.6535829411
  C        24.3113371120       16.9599213829       13.3394337231
  C        21.5774209581       17.9339926615       10.8930968529
  C        21.5771590365       17.9070740653        9.4706173261
  C        22.7820418723       17.7788820894        8.7096551203
  C        34.4247095504       17.2237158584       13.8805032386
  C        35.7211795095       17.1592817289       13.1464728107
  C        35.9300038647       16.1750159151       12.1678187868
  C        37.1147784096       16.1486575753       11.4385260077
  C        38.1198992525       17.1078447040       11.6658914449
  C        37.9151447974       18.0717942399       12.6714845703
  C        36.7293567244       18.1009814414       13.4012686677
  C        39.3743009195       17.1114914400       10.8806355113
  C        39.3711439625       17.1125652770        9.4585784326
  C        38.1626938135       17.1937906764        8.6960150176
  C        20.3302844679       17.9240300455        8.7625452372
  C        20.3525611295       17.9395800173       11.5755897248
  C        34.4846225177       17.2429829420        2.1689395835
  C        35.7989488213       17.1616506809        2.8767507138
  C        36.0932349165       16.0809369137        3.7244299842
  C        37.2693442057       16.0732427428        4.4725730891
  C        38.1878182554       17.1338158302        4.3722675466
  C        37.9104582878       18.1868888816        3.4819908275
  C        36.7265372427       18.2066738018        2.7492217124
  C        39.4323957614       17.1480260488        5.1746422863
  C        39.4014044629       17.1257441349        6.5937741167
  C        38.1766230557       17.1922786941        7.3292166563
  C        35.1697569110       26.6273459253        7.2924450898
  C        35.1855939511       26.6484117147        4.4835679955
  C        26.5670465031       17.8202261997        2.3330531696
  C        25.2532390068       17.8688402123        3.0381781892
  C        24.9888413985       18.8733409518        3.9812899199
  C        23.7710850640       18.8979541005        4.6548265207
  C        22.7887557574       17.9183307327        4.4078058738
  C        23.0468406578       16.9394101358        3.4311736058
  C        24.2656002688       16.9122894535        2.7566065686
  C        21.5257252184       17.8983263245        5.1810334799
  C        21.5505917745       17.8874586676        6.6023868554
  C        22.7694229354       17.7696334353        7.3434365246
  C        14.0460753355       17.8283340035        2.2942099268
  C        15.3497767328       17.8838464088        3.0203497554
  C        15.6059146601       18.8848821922        3.9703292218
  C        16.8144940848       18.9038333086        4.6638438432
  C        17.8009450375       17.9246861068        4.4292141527
  C        17.5494911852       16.9478959688        3.4472346464
  C        16.3403324946       16.9241976575        2.7554732273
  C        19.0699878953       17.9061416206        5.1977517857
  C        19.0693266592       17.9017122530        6.6201424114
  C        17.8627019370       17.8017302237        7.3818100386
  C        46.8086002110       17.2212623905        2.1646654719
  C        45.5225955877       17.1682443771        2.9142254097
  C        45.3164835564       16.1964634050        3.9050476413
  C        44.1370346132       16.1883121478        4.6438292053
  C        43.1364320790       17.1518612923        4.4116699055
  C        43.3406414184       18.1044532417        3.3957508907
  C        44.5207912063       18.1166532670        2.6582929733
  C        41.8832089002       17.1640370485        5.1961182135
  C        41.8843910848       17.1520597313        6.6170788540
  C        43.0906560309       17.2557354842        7.3791877260
  C        20.3163701441       17.9129091932        7.3278400390
  C        20.2936478421       17.8877494848        4.5147981801
  C        46.7845240751       17.2316073989       13.8839099803
  C        45.4805319719       17.1269803276       13.1691555900
  C        45.2623537808       16.1329562227       12.2032487208
  C        44.0739160350       16.1087864838       11.4775922610
  C        43.0738008540       17.0751590650       11.7008637775
  C        43.2817895259       18.0380326275       12.7059296312
  C        44.4717492440       18.0690471291       13.4262286819
  C        41.8285660398       17.0982467206       10.9022286622
  C        41.8563281739       17.1177864415        9.4817360524
  C        43.0770143317       17.2368391852        8.7452757469
  C        46.1528895051       26.6370598840        8.7211173129
  C        46.1621907002       26.6558741328       11.5307510160
  C        14.0457318731       17.8318156734       13.7037480320
  C        15.3669390121       17.9063018909       13.0135859992
  C        15.6398096568       18.9202824534       12.0832539041
  C        16.8688482450       18.9572421525       11.4284262065
  C        17.8528286579       17.9795115501       11.6783132958
  C        17.5869972512       16.9949226643       12.6472671871
  C        16.3599036214       16.9572712042       13.3054208547
  C        19.1199623349       17.9535204920       10.9090764517
  C        19.0954025637       17.9248080125        9.4877103891
  C        17.8754437190       17.8122067030        8.7477861227
  C        28.8060990859       14.0848234097        2.3655258383
  C        28.2014866531       12.9135988916        3.0640162526
  C        28.9318125783       12.1749722243        4.0067093902
  C        28.3370241626       11.1008266221        4.6648914128
  C        26.9993428979       10.7412104431        4.4033921538
  C        26.2904700381       11.4617538756        3.4252423810
  C        26.8820278698       12.5364354927        2.7666318656
  C        26.3338714822        9.6597977610        5.1664169485
  C        26.3243143316        9.6838067818        6.5874592537
  C        26.8373941874       10.7921600161        7.3335674192
  C        32.1805087174       21.2379089097        2.1485827772
  C        32.7783202028       22.4017882395        2.8675805928
  C        32.0402565789       23.0672268329        3.8582064808
  C        32.6148009763       24.1044848632        4.5858919804
  C        33.9438278788       24.5028898972        4.3449240835
  C        34.6643370028       23.8554972752        3.3234629909
  C        34.0917549924       22.8136190623        2.5966986081
  C        34.5770192297       25.5757461784        5.1442408528
  C        34.5773791405       25.5431477494        6.5657741715
  C        34.0748952096       24.4255733893        7.3046881023
  C        25.7091773668        8.6084164204        7.3058381675
  C        25.6935435066        8.6110381501        4.4929218873
  C        32.1074596372       21.2326618122       13.8809329337
  C        32.7067188838       22.3769171013       13.1330629985
  C        31.9797321998       23.0325751547       12.1276182334
  C        32.5668112310       24.0571560562       11.3892087875
  C        33.8943643581       24.4564007158       11.6385016585
  C        34.6047948093       23.8135296838       12.6702710666
  C        34.0227159237       22.7826602723       13.4034158775
  C        34.5382266272       25.5347620174       10.8538708998
  C        34.5565395088       25.5230621623        9.4321032396
  C        34.0636208936       24.4165586594        8.6712848665
  C        40.6207992587       17.1059540432        8.7549939462
  C        40.5958835674       17.1183980723       11.5635298753
  C        28.7434965696       14.0656318686       13.8163758685
  C        28.1359343943       12.9182208757       13.0746928706
  C        28.8892847532       12.1943413000       12.1362812865
  C        28.3094210819       11.1412463675       11.4309319545
  C        26.9633713490       10.7810692789       11.6460634639
  C        26.2281615051       11.4911292963       12.6128834247
  C        26.8045403609       12.5477358611       13.3159440633
  C        26.3244058524        9.6874298651       10.8744138211
  C        26.3214131511        9.6975669236        9.4532907718
  C        26.8344450528       10.7993131844        8.6992498166
  C        18.1352824140        3.1794754402        2.3227215544
  C        17.4048029790        4.2763617634        3.0207719537
  C        16.3905375150        3.9975074565        3.9497386564
  C        15.7421746298        5.0372678097        4.6130095079
  C        16.0920914968        6.3812814548        4.3718827906
  C        17.0799250481        6.6511764828        3.4066180673
  C        17.7294926918        5.6140937688        2.7416319707
  C        15.4677673786        7.4890447410        5.1348702781
  C        15.4836532114        7.4889496736        6.5566113162
  C        16.1856389523        6.4957447350        7.3099340661
  C        42.9457000974       31.8596195317        2.0778090447
  C        43.6458594636       30.7721869151        2.8222570396
  C        44.5914450803       31.0933681394        3.8083163534
  C        45.1970728673       30.0877197624        4.5559284376
  C        44.8705923770       28.7346781876        4.3409782411
  C        43.9446648786       28.4204960794        3.3278055151
  C        43.3358857178       29.4257198208        2.5798774449
  C        45.4881749782       27.6552713559        5.1440353882
  C        45.4923405299       27.6808476067        6.5657249974
  C        44.8051009889       28.6887468087        7.3124075764
  C        14.8549792217        8.5617173576        7.2688550579
  C        14.8723648191        8.5607380680        4.4561752366
  C        42.9463066348       31.9614497536       13.8039860033
  C        43.6916758855       30.8853188154       13.0905872929
  C        44.6561955694       31.1911531949       12.1181911977
  C        45.2776090558       30.1715319841       11.4004093546
  C        44.9538040329       28.8212287421       11.6380851176
  C        44.0204011290       28.5236185003       12.6489586018
  C        43.3922397710       29.5404250881       13.3611699176
  C        45.5627414515       27.7238222318       10.8527665935
  C        45.5329048940       27.7171630229        9.4314731960
  C        44.8264188212       28.7073258888        8.6785904283
  C        35.1604788209       26.6161064138        8.7270268860
  C        35.1448096685       26.5957826754       11.5365014219
  C        18.1483342583        3.2468470539       13.7015577113
  C        17.4296999138        4.3437626100       12.9923719526
  C        16.4145811826        4.0524048556       12.0687160132
  C        15.7662337761        5.0829535247       11.3932311550
  C        16.1207316587        6.4282589195       11.6158854309
  C        17.1119717324        6.7117211266       12.5732811469
  C        17.7596855318        5.6828887050       13.2531584771
  C        15.4901935504        7.5238608017       10.8432983443
  C        15.4956985630        7.5068566822        9.4221519125
  C        16.1923300461        6.5050094423        8.6755356845
  H        10.6722453348       12.4657783267       11.8994401303
  H        11.6942491827       10.5509907023       10.6574346806
  H        15.3917148852       11.1688208887       12.7661589117
  H        14.3514743249       13.0716357212       14.0114995429
  H        13.3754284243       11.6305312744        9.1953124934
  H        50.3228607130       22.7486832924       11.9817467030
  H        49.3195460227       24.6230319281       10.6756810009
  H        45.6419796081       24.1607800019       12.8583073551
  H        46.6630645625       22.2899175600       14.1665665993
  H        47.6296597205       23.5758345871        9.2408938851
  H        14.8720663685        8.5885122037       12.6030546191
  H        50.2869206485       22.7028606374        4.0654454279
  H        49.2688239976       24.5757215896        5.3653787711
  H        45.6103796019       24.1093070089        3.1508066109
  H        46.6526609382       22.2539860442        1.8366238029
  H        47.6075488553       23.5518511226        6.8017476614
  H        40.6706685442       17.1754896560        3.4238412230
  H        48.6870066626       14.0949975194       15.7948980159
  H        10.6804782229       12.4663584727        4.0976888835
  H        11.6877527182       10.5237826529        5.3010905895
  H        15.3921955041       11.1568437547        3.2102006656
  H        14.3646906589       13.0860112381        1.9952707993
  H        13.3744123943       11.6207906321        6.7573226381
  H        47.9303143810       14.2177951990        1.7160256774
  H        47.7799678586       14.3733236203       14.4899519260
  H        49.0847923373       18.5529962909        2.8726637994
  H        10.4160506777       14.1342506823        0.0036680341
  H        24.4814992449        3.0294874923       11.9071509004
  H        25.6222425882        4.8874422875       10.6804964100
  H        23.2510895128        7.7558070140       12.8369426150
  H        22.1287004574        5.8879778012       14.0650902110
  H        23.8129626461        5.7957397978        9.2532105883
  H        36.3830577818       32.1799680181       11.9535447220
  H        35.2694968380       30.3498371116       10.6714637193
  H        37.5337778990       27.4362631470       12.8819532095
  H        38.6277331143       29.2789097269       14.1722297077
  H        37.0468209302       29.4396136314        9.2610267242
  H        25.7372717561        8.6147236422       12.6407021802
  H        36.4581753614       32.2364476114        4.1205016578
  H        35.3508753783       30.4139072950        5.4137356546
  H        37.5290488654       27.4854209891        3.1360691837
  H        38.6113775721       29.3195386575        1.8307067149
  H        37.0606861899       29.4596322835        6.8226615927
  H        46.1089118100       26.5877504315        3.3906236553
  H        44.6705248587       35.1162667577       15.8051416693
  H        24.4425166456        3.0389010191        4.0861229376
  H        25.5791446558        4.8770304061        5.3337509465
  H        23.1734056452        7.7679875207        3.2477258020
  H        22.0481495274        5.9177402247        2.0001910915
  H        23.7967039754        5.7954455353        6.8146255707
  H        44.9544058725       34.3897161718        1.6998272975
  H        44.9001729732       34.2058533557       14.4834679003
  H        40.6649437172       33.2094709407        2.8573212329
  H        23.1518917267        1.9578787818        0.0090241289
  H        25.8296088298       19.6356491428       11.8946993917
  H        23.6578355102       19.6844414325       10.6584450649
  H        22.3390312770       16.2339571398       12.8611907653
  H        24.5125330093       16.2031666991       14.0942286426
  H        23.7227654630       17.6573343640        9.2387134592
  H        35.1493241954       15.4406380746       11.9850535481
  H        37.2751649157       15.3771844310       10.6886482373
  H        38.6848225322       18.8197899853       12.8501953506
  H        36.5537222187       18.8580267315       14.1621001111
  H        37.2163548782       17.2825885494        9.2217450130
  H        20.3595721085       17.9845328924       12.6632592652
  H        35.3872234681       15.2556613624        3.7948108499
  H        37.4893716543       15.2403233113        5.1371613277
  H        38.6184148837       19.0092742426        3.4014024804
  H        36.4849770738       19.0352780761        2.0875606508
  H        37.2413499021       17.2736914612        6.7820532131
  H        35.1505972405       26.6775115801        3.3961616067
  H        28.5050280523       21.0757022186       15.9671340418
  H        25.7489573834       19.6280572710        4.1692165557
  H        23.5660463229       19.6804344825        5.3822439414
  H        22.2959726903       16.1767821028        3.2349435059
  H        24.4822259710       16.1445145723        2.0176777757
  H        23.7004648634       17.6418160576        6.7991167891
  H        29.0028613923       21.7175535821        1.7669891157
  H        29.1656399331       21.7383687002       14.6227387091
  H        32.1281381142       18.5750123601        2.9732927231
  H        27.3715205934       19.0301129962        0.0912507611
  H        14.8475164338       19.6436752291        4.1497545318
  H        17.0097277864       19.6863104768        5.3940068271
  H        18.3008801099       16.1841810752        3.2572223161
  H        16.1344109302       16.1568536019        2.0130295848
  H        16.9201618138       17.6846817355        6.8549208059
  H        46.0969754543       15.4617127560        4.0881001548
  H        43.9743394292       15.4272848350        5.4037906156
  H        42.5750613970       18.8559548886        3.2144407284
  H        44.6975681053       18.8651154876        1.8895383679
  H        44.0321768513       17.3838538619        6.8528095373
  H        20.2871280858       17.9194255122        3.4267296888
  H        46.0398341661       15.3942105315       12.0223499029
  H        43.9077952794       15.3381382101       10.7279758643
  H        42.5146022164       18.7883410175       12.8855331298
  H        44.6540523069       18.8321535501       14.1788736132
  H        44.0083653727       17.3488349509        9.2928277403
  H        46.1991357290       26.6823914878       12.6181924526
  H        52.7412332443       21.0626726037        0.1998152195
  H        14.8787694647       19.6730562924       11.8897925050
  H        17.0793692380       19.7462841358       10.7096698308
  H        18.3381908489       16.2338116713       12.8480715030
  H        16.1392909442       16.1839599946       14.0371993496
  H        16.9424572939       17.7031821016        9.2925174626
  H        52.3228181421       21.6734013826       14.2890424477
  H        52.0133922651       21.7021993720        1.5007856881
  H        49.0675560878       18.6075792026       13.1986696041
  H        13.2478147513       19.0162067018       15.9723167117
  H        29.9628519253       12.4553209777        4.2111696537
  H        28.9055979315       10.5270305798        5.3935921329
  H        25.2565464358       11.1945799941        3.2166273981
  H        26.3327564973       13.1141045007        2.0272126115
  H        27.2088670919       11.6574227130        6.7928935756
  H        31.0206427648       22.7442668464        4.0529061122
  H        32.0374902912       24.6203532103        5.3499611951
  H        35.6927567805       24.1547044180        3.1316663676
  H        34.6526953629       22.2890450907        1.8265793025
  H        33.7193109437       23.5559036154        6.7595407190
  H        25.7214865113        8.5931967055        3.4048341023
  H        30.9570668857       22.7205761659       11.9291238342
  H        31.9959943212       24.5660630132       10.6155905735
  H        35.6328070745       24.1103653547       12.8676562099
  H        34.5761563915       22.2633282749       14.1823352011
  H        33.6997921518       23.5400196053        9.1999053591
  H        40.5853713482       17.0847639491       12.6512991673
  H        32.5207461347       14.1503688078        0.2482366781
  H        29.9360844665       12.4584195336       11.9929400664
  H        28.9002398663       10.5744834535       10.7141514274
  H        25.1873253809       11.2243936014       12.7848800612
  H        26.2346026797       13.1115235505       14.0508900035
  H        27.2024379443       11.6701953837        9.2336559431
  H        33.2951698334       14.1834292249       14.4265751759
  H        33.4094539643       14.3981313450        1.6094512473
  H        32.0892993571       18.5591071316       13.1760080239
  H        30.2276479474       14.1922005185        0.0792878310
  H        16.1204209858        2.9607548980        4.1376021530
  H        14.9537772931        4.8174127335        5.3296833112
  H        17.3607879521        7.6842407702        3.2122287453
  H        18.5102793640        5.8171643702        2.0125726323
  H        16.7521078539        5.7382812929        6.7765223204
  H        44.8279800748       32.1403874357        3.9825258303
  H        45.9369986355       30.3413606912        5.3118517259
  H        43.6819054145       27.3784588196        3.1576080218
  H        42.5992337417       29.1904912869        1.8152120871
  H        44.2296718923       29.4364932495        6.7741555235
  H        14.8481914773        8.5436262035        3.3679685515
  H        44.8997653426       32.2338147087       11.9266838466
  H        46.0244690419       30.4127186733       10.6471087660
  H        43.7634268661       27.4838966071       12.8405473019
  H        42.6457659933       29.3176736154       14.1196576739
  H        44.2678358656       29.4701116877        9.2132382322
  H        35.0999323205       26.6104501832       12.6238346735
  H        36.6075790004       35.1343836620        0.1899213234
  H        16.1435272706        3.0128026657       11.8990845596
  H        14.9739357241        4.8559682194       10.6831572434
  H        17.3952821792        7.7472313059       12.7502528281
  H        18.5423803489        5.8934695455       13.9780771307
  H        16.7640162479        5.7549870111        9.2140043187
  H        36.2774661870       34.4837602250       14.2681944561
  H        36.3847594720       34.2077933892        1.5054329313
  H        40.5792117546       33.2025660961       13.1483218376
  H        17.4748688725        1.9458765075       15.9716754592
  H        28.7520875941       18.9888210221        4.3331831140
  H        29.9060219169       19.8995877268       11.6886783529
  H        32.2218303202       16.2890486892       11.7362012454
  H        31.0508498472       15.3886332223        4.3746841536
  H        28.4295280289       17.2928446122        6.9597951732
  H        29.2888484215       15.1832586390        6.4515697333
  H        31.6680698929       19.8037090036        9.3505720343
  H        32.2341988775       17.5983490830        8.8857038827
  H        28.3319792521       16.6851465082       10.7100959599
  H        18.9042627322        0.8517258861        4.3676483757
  H        40.5244986763       35.2298342476       11.9462967456
  H        42.3245782343       34.4192125224       11.5843502933
  H        22.0970618065        0.6987633422        4.3486624172
  H        11.5968505985       18.7131225006        4.3876142745
  H        52.2649341706       18.4311281196       11.6720720341
  H        49.2552157618       16.4768942782       11.5792984925
  H        10.1504431695       15.7981966269        4.2978473047
  H        50.8500710536       17.6924150343       11.9491306401
  H        10.0462934852       17.3945070275        4.0570157665
  H        20.2919821575        0.0044550490        4.0392012681
  H        39.1816882417       36.1253457274       11.6840202306
 Ni        30.6901202511       17.8737211661       10.7433564581
 Ni        30.8160127868       15.8870504901        8.2444632178
 Ni        29.9310323293       18.9879712172        7.8267831956
 Ni        30.0941624511       17.2863174721        5.2476359041
  O        10.6499513997       14.3651074515       13.4806926085
  O        12.6131833573       14.6574582367       14.5787360895
  O        49.1481713552       16.8459261792       15.9845017754
  O        50.3502777512       20.9358931287       13.6429116930
  O        48.3485761360       20.5933797478       14.6607085105
  O        11.0516271056       17.0538575659       14.4955610684
  O        50.3209450113       20.8817097339        2.4119653096
  O        48.3467381257       20.5868036422        1.3321784061
  O        49.5439082839       18.2484749077        2.0732470327
  O        12.3592432498       18.6246722330        0.0047783974
  O        48.6932379285       14.1486356734       14.7461549596
  O         8.2099552283       14.2103204881        1.3275834657
  O        10.7354161445       14.5067186479        2.6694615201
  O        12.5718410410       14.5827166325        1.3336240537
  O        22.8448011697        2.0436689088       13.4815445509
  O        21.6061251141        3.5928250754       14.5838947930
  O        42.0594601721       34.1370689394       15.9717771732
  O        37.9819132414       33.1369862762       13.5674619678
  O        39.2186999025       31.5763340054       14.6622193836
  O        20.3090323763        1.0398120453       14.4966944759
  O        38.0254589085       33.1859400216        2.4213653869
  O        39.2193461614       31.5841049320        1.3314541071
  O        40.6543595724       33.7682377373        2.0632746779
  O        18.2594047059        1.3743561097        0.0033831086
  O        44.6227522204       35.1003072957       14.7516359855
  O        24.2068033615       -0.0000939578        1.3255063017
  O        22.7533515272        2.0574439387        2.5887528655
  O        21.6250006035        3.5963626366        1.3481724174
  O        27.4914634170       18.7487201869       13.4918725184
  O        26.7619415377       16.9285594433       14.6481408673
  O        30.6418244354       19.3566643469        0.0759678543
  O        33.5465593316       16.3386312057       13.5810038412
  O        34.2761778809       18.1673311775       14.7290716047
  O        29.5726764303       17.0616239707       14.5623767113
  O        33.6232322444       16.3312715055        2.4181350938
  O        34.3053361372       18.2488894679        1.4085730154
  O        31.6511415163       18.3109544089        2.1705433040
  O        30.3224561011       15.1586090515        0.0827045109
  O        28.5543423869       21.0310660133       14.8976943230
  O        28.5124693231       20.9549314553        1.4159866213
  O        27.4563651345       18.6741972110        2.6690390684
  O        26.6917299578       16.9276208927        1.4210583953
  O        13.1485910623       18.6929206058        2.5925393659
  O        13.9191190788       16.9161440847        1.4099615682
  O        50.5964323094       19.3502836852        0.0252971926
  O        47.6843035631       16.3269879598        2.4220631723
  O        46.9533193191       18.1763655669        1.3283131833
  O        11.0699011609       17.0154830727        1.4947172653
  O        47.6750019962       16.3358805820       13.6477009274
  O        46.9268393476       18.2361035459       14.6593152429
  O        49.5686781710       18.3177194690       13.9769653463
  O        10.3186681501       15.1001014366        0.0021195815
  O        52.6707711659       21.0278871977        1.2469286863
  O        12.1468528230       20.8911868770       14.6681214446
  O        13.1082941765       18.6136354904       13.3204690739
  O        13.9572681412       16.9870485565       14.6603028113
  O        29.9982678782       14.4320783195        2.6687771969
  O        28.0765087951       14.6571901162        1.4889745806
  O        32.1437510866       16.8538258028        0.0762639776
  O        30.9661630805       20.9502263896        2.4156736022
  O        32.9461228113       20.5992971946        1.3421188261
  O        29.5666529149       17.0740139552        1.5832632002
  O        30.8769627358       20.9571541982       13.6644109012
  O        32.8792328067       20.5852626098       14.6643004922
  O        31.6801926811       18.2573026111       14.0020378876
  O        28.2598398951       18.6389738250        0.0858854843
  O        32.4945385209       14.2117137253        1.3297149445
  O        32.4065473302       14.2189800554       14.8177113040
  O        29.9137425906       14.4372155140       13.4811747672
  O        28.0365720025       14.5874451743       14.7464164954
  O        17.8898537223        1.9652647628        2.6685846238
  O        18.9562135149        3.5265891457        1.4135260113
  O        39.1692927694       34.1392959367        0.0046160138
  O        43.2804806318       33.0593579805        2.3364660848
  O        42.0346444898       31.5066092037        1.2466101800
  O        20.3213842426        1.0373276105        1.4840886345
  O        43.2760248462       33.1825031508       13.5696462598
  O        42.0051710154       31.5841513591       14.5779188238
  O        40.5788317089       33.7749948167       13.9306176151
  O        22.3685122363        1.3850032461        0.0022638477
  O        36.6742265345       35.0997201717        1.2409117957
  O        16.4459705506        0.0647353085       14.6629917500
  O        17.9365144080        2.0433487062       13.3215126736
  O        18.9189853127        3.5931591306       14.6609278253
  O        29.8643623234       19.0430606910       12.1501612995
  O        29.6971597374       19.0451501280        4.0828000717
  O        31.3032182905       16.2632643547       12.0667627130
  O        31.3137203220       16.2609078974        4.0137132989
  O        31.8610927211       16.9229248749        9.4840484436
  O        28.7268134993       17.2158623473        9.9933252801
  O        30.1629423309       15.6037750605        6.4937056818
  O        32.1175147493       18.3999354930        6.8384100836
  O        30.7400720431       19.5567970734        9.4947883894
  O        28.7313241352       18.0975650827        6.5010845677
  O        39.4555020952       35.2440031888       11.9970664468
  O        19.2008929906        0.0036854972        3.9929847269
  O        41.9701010453       35.1726360316       12.0815980194
  O        21.7009323896       -0.0689485223        3.9030399641
  O        51.3651378383       18.6142771457       12.0002640476
  O        10.7510902303       18.7472042081        3.9099846553
  O        50.0796198671       16.4128160405       12.0866209960
  O         9.5245853466       16.4830599458        3.9963166845
 Zr         9.2968903971       16.0527766726       14.1773353843
 Zr        49.8367616516       16.0065358332        1.7513652621
 Zr        22.0724115475        0.0304112012       14.1811185986
 Zr        42.4635728449       35.1518200062        1.7965879092
 Zr        29.5941649049       19.0982947571       14.2643173447
 Zr        29.5712327963       19.1735060792        1.8807140724
 Zr        11.0382524275       19.0518961342        1.8327117063
 Zr        11.0442896286       19.1547879453       14.2457681881
 Zr        31.3502799564       16.0973909928        1.8473517947
 Zr        31.3813375576       16.0152086694       14.2487252413
 Zr        18.6070319562        0.0001915223        1.7804279888
 Zr        18.5058645994       -0.0088494456       14.2120000059
 Zr        12.3022693277       16.3235733854       15.9850887313
 Zr        48.6170466046       18.8332773309        0.0147343315
 Zr        20.3145502018        2.4738012028       15.9849716516
 Zr        40.6412300425       32.6872744025       15.9729046992
 Zr        28.3438344430       16.3464206718        0.0821103074
 Zr        32.6153771669       18.8375889729        0.0499333310
  H        32.2870456404       19.2703549317        6.4413056900
  O        30.7943015870       14.5167633467        9.9123594023
  H        30.9260618233       15.0554460033       10.7505684446
  H        30.0198550683       13.9561958556       10.0839701043
  O        33.5010877234       16.5610337995        5.5810010101
  H        34.3264175507       16.7261727847        5.0939937199
  H        32.8035198651       16.3932815511        4.8821860591
  O        27.8787804690       20.1466508297        7.9982951732
  H        27.7306847596       19.4183750793        7.3409212977
  H        27.5111791954       19.8175354033        8.8365675463
  O        30.3733721103       20.5103804799        6.3167921465
  H        30.1384296809       20.0810671472        5.4313799122
  H        29.7093778228       21.2042443457        6.4652662948
  H        29.1273837816       16.5648481142        9.3320082253
  H        32.7381212802       17.7414976350        6.3849045190
