     586
 i =      219, E =     -4847.8142886609
  C        11.8581677064       14.0539630394       13.7363681458
  C        12.4557959790       12.8906189177       13.0178737390
  C        11.7045114309       12.1727145276       12.0752052580
  C        12.2807605192       11.1104586232       11.3827073270
  C        13.6208806988       10.7396398382       11.6113016415
  C        14.3536136064       11.4422325766       12.5857998255
  C        13.7808338581       12.5072812373       13.2773560198
  C        14.2604700183        9.6488961746       10.8380146898
  C        14.2562044744        9.6567002294        9.4162746723
  C        13.7433679440       10.7588268512        8.6621256788
  C        49.1264808710       21.2332771161       13.8748125731
  C        48.5495998483       22.4010606630       13.1474332429
  C        49.2996464265       23.0685953679       12.1666282197
  C        48.7325600889       24.1075780648       11.4333540328
  C        47.4019039649       24.5088818797       11.6618516533
  C        46.6708657026       23.8596149286       12.6750166386
  C        47.2334098272       22.8147354687       13.4043315199
  C        46.7717375588       25.5866414974       10.8646918361
  C        46.7606453485       25.5570748664        9.4428841292
  C        47.2602609220       24.4418802507        8.6994110151
  C        14.8599991318        8.5701309355        8.7031781695
  C        14.8908039505        8.5967211831       11.5147668838
  C        49.1128988126       21.2032247619        2.1504008688
  C        48.5274906399       22.3646650989        2.8776863672
  C        49.2665722906       23.0254784071        3.8706184752
  C        48.6900957297       24.0599702960        4.6020604464
  C        47.3596219600       24.4565621541        4.3638191918
  C        46.6392515964       23.8113603393        3.3404731235
  C        47.2129066677       22.7753766022        2.6088480358
  C        46.7211225553       25.5315775446        5.1547300650
  C        46.7327932128       25.5279322370        6.5764941925
  C        47.2480310114       24.4286277696        7.3328150586
  C        40.6200071613       17.0747007133        7.3114991161
  C        40.6310446890       17.1444387629        4.4979915422
  C        11.8825511670       14.0866872462        2.2903969598
  C        12.4715289297       12.9098622239        2.9942494239
  C        11.7140789972       12.1774078139        3.9209149644
  C        12.2801790404       11.0945512651        4.5892337932
  C        13.6185200888       10.7196490499        4.3567314740
  C        14.3563540126       11.4344116516        3.3952284822
  C        13.7914075537       12.5160426029        2.7227636199
  C        14.2519970516        9.6228241238        5.1272933382
  C        14.2517368809        9.6435010230        6.5491674906
  C        13.7425084338       10.7528855831        7.2960605702
  C        22.5151013953        3.2466817714       13.7497409615
  C        23.2364428234        4.3539938344       13.0562273382
  C        24.2367750016        4.0757646785       12.1126373838
  C        24.8690820479        5.1160099129       11.4359970536
  C        24.5191386388        6.4591010076       11.6821637810
  C        23.5472441269        6.7286360505       12.6633002288
  C        22.9098653795        5.6898240660       13.3380828071
  C        25.1282986623        7.5644385402       10.9059116418
  C        25.0980313392        7.5531952757        9.4815998726
  C        24.3856974627        6.5594220306        8.7416643575
  C        38.3024103714       31.9282604717       13.8439574176
  C        37.5759648555       30.8381811611       13.1371201584
  C        36.6295786037       31.1369326293       12.1443162703
  C        36.0199214112       30.1131330021       11.4258402237
  C        36.3379392953       28.7633708763       11.6789087709
  C        37.2524950859       28.4733644171       12.7100748318
  C        37.8683961757       29.4957252823       13.4258506855
  C        35.7428189308       27.6696489247       10.8830292666
  C        35.7636525120       27.6900221690        9.4569368437
  C        36.4710829534       28.6860791416        8.7205727712
  C        25.7270486593        8.6164492163        8.7558748802
  C        25.7309517306        8.6395770940       11.5707123635
  C        38.3275141234       31.9613332198        2.1610437029
  C        37.6049511574       30.8890701056        2.8971864402
  C        36.6915541409       31.1942836956        3.9188671311
  C        36.0866351929       30.1737266926        4.6482344581
  C        36.3764724067       28.8198380870        4.3793997813
  C        37.2643644203       28.5259426689        3.3250002681
  C        37.8734894878       29.5427864793        2.5981909511
  C        35.7754079351       27.7199293145        5.1626270288
  C        35.7800146378       27.7157360235        6.5891506298
  C        36.4786552544       28.6988206142        7.3507034666
  C        46.1348786559       26.6206358279        7.2866446746
  C        46.0870196023       26.5798971850        4.4787613826
  C        22.4582984832        3.2557030327        2.2649434198
  C        23.1467215909        4.3652295323        2.9935787559
  C        24.1414736045        4.0806192913        3.9428393457
  C        24.7645200497        5.1112675206        4.6424941652
  C        24.4151235526        6.4578706152        4.4147905983
  C        23.4421151258        6.7353418231        3.4353497962
  C        22.8135556662        5.7047041880        2.7372339164
  C        25.0480084715        7.5564968387        5.1857673896
  C        25.0573064293        7.5484166972        6.6114172834
  C        24.3652072943        6.5577718189        7.3732279099
  C        26.6168820485       17.8605826840       13.7821096087
  C        25.3143049741       17.9071188696       13.0631426816
  C        25.0597029271       18.8962477697       12.0963418778
  C        23.8507514776       18.9144980498       11.4062405865
  C        22.8497917112       17.9515568243       11.6609647288
  C        23.0984853760       16.9913717630       12.6621388786
  C        24.3117845914       16.9633345688       13.3464039843
  C        21.5804931762       17.9358036232       10.8965280725
  C        21.5814330292       17.9258710543        9.4713018249
  C        22.7841179484       17.8017634714        8.7103228066
  C        34.4350564539       17.2215223561       13.8797272436
  C        35.7259730025       17.1519552656       13.1580051846
  C        35.9265764351       16.1913265628       12.1505145280
  C        37.1088482462       16.1721887812       11.4213143821
  C        38.1339848881       17.1076621464       11.6765944852
  C        37.9410072182       18.0374433464       12.7200883033
  C        36.7541586291       18.0663142015       13.4448363606
  C        39.3799407066       17.1191878660       10.8877669927
  C        39.3684474249       17.0991547118        9.4604671862
  C        38.1624938321       17.1962866154        8.7055132129
  C        20.3344039919       17.9434247917        8.7625975731
  C        20.3542834094       17.9255745552       11.5779452987
  C        34.4500669455       17.2321835659        2.1876559936
  C        35.7444317478       17.1203398471        2.8918764148
  C        35.9729808367       16.1146812263        3.8531889798
  C        37.1519294600       16.1003390403        4.5917541632
  C        38.1585513008       17.0673994257        4.3730975139
  C        37.9483087165       18.0253827575        3.3581058230
  C        36.7588711207       18.0632809406        2.6422145587
  C        39.4000158080       17.0919077262        5.1646507717
  C        39.3800159612       17.0793832251        6.5910310223
  C        38.1685029453       17.1817617027        7.3351260324
  C        35.1429758731       26.6394262646        7.2933732311
  C        35.1930386597       26.6451683035        4.4810674632
  C        26.5647120689       17.8228420593        2.3316575802
  C        25.2558916233       17.8766703814        3.0309522144
  C        24.9924458854       18.8797028429        3.9790442714
  C        23.7770959758       18.9037455839        4.6540778095
  C        22.7878216579       17.9294179906        4.4037816813
  C        23.0425596900       16.9577812282        3.4169293251
  C        24.2607331190       16.9272507950        2.7436573855
  C        21.5284300454       17.9088819354        5.1772329343
  C        21.5549388867       17.9110486250        6.6011058454
  C        22.7714340735       17.7946383190        7.3421050424
  C        14.0462116023       17.8287699906        2.2933316303
  C        15.3508236853       17.8855564279        3.0181504944
  C        15.6050864763       18.8834007831        3.9722611493
  C        16.8135533088       18.9026988412        4.6655291803
  C        17.8038984466       17.9279934468        4.4263348678
  C        17.5541799659       16.9549441941        3.4396326618
  C        16.3446145878       16.9304518864        2.7486999639
  C        19.0724141467       17.9106269118        5.1940802318
  C        19.0727358770       17.9156900607        6.6193419737
  C        17.8687135310       17.8129649166        7.3802048372
  C        46.8015677587       17.2166181180        2.1615246328
  C        45.5090742431       17.1503367776        2.8978111121
  C        45.3073647395       16.1855287570        3.8978501631
  C        44.1234986533       16.1680233079        4.6289867787
  C        43.1065727021       17.1129157502        4.3828896299
  C        43.3051038333       18.0537192309        3.3529425929
  C        44.4906897895       18.0768945466        2.6236737703
  C        41.8556267880       17.1237762031        5.1711786406
  C        41.8653112335       17.1103930523        6.5990204975
  C        43.0699503010       17.2255947637        7.3520475348
  C        20.3204953588       17.9347588251        7.3270350663
  C        20.2954652743       17.8844944614        4.5120605641
  C        46.7845059885       17.2322774739       13.8812671760
  C        45.4858117621       17.1299981558       13.1639470743
  C        45.2783797729       16.1545089991       12.1754751834
  C        44.0935332243       16.1356964513       11.4456701570
  C        43.0800999060       17.0857392570       11.6871773141
  C        43.2786338362       18.0282067807       12.7153729079
  C        44.4661845206       18.0564535163       13.4380357846
  C        41.8351186881       17.1094105205       10.8938404936
  C        41.8545696504       17.1039891565        9.4671711713
  C        43.0650388875       17.2196516012        8.7229735567
  C        46.1525955257       26.6369869202        8.7212020464
  C        46.1616326534       26.6556053623       11.5308501230
  C        14.0455616061       17.8315197046       13.7040811663
  C        15.3675995056       17.9051711406       13.0145799564
  C        15.6411219738       18.9167077250       12.0816074671
  C        16.8702864509       18.9521379809       11.4272852706
  C        17.8554653479       17.9757726798       11.6800787598
  C        17.5886109313       16.9936858300       12.6517021574
  C        16.3610726782       16.9574274875       13.3091209314
  C        19.1224968229       17.9499110196       10.9120821737
  C        19.0988104003       17.9345126213        9.4876804179
  C        17.8815123351       17.8212021769        8.7482104451
  C        28.8006940753       14.0828511233        2.3921359678
  C        28.1930126133       12.9134024931        3.0753782413
  C        28.9172969135       12.1669539946        4.0200955593
  C        28.3165467478       11.0965119643        4.6748385025
  C        26.9776843642       10.7382257683        4.4077110976
  C        26.2795690694       11.4583422137        3.4195165527
  C        26.8749812661       12.5336525699        2.7672296692
  C        26.3096996025        9.6643397425        5.1726176380
  C        26.3182881909        9.6864120420        6.5960735249
  C        26.8320629562       10.7950369706        7.3373676960
  C        32.1785010028       21.2427250140        2.1519607222
  C        32.7661483356       22.4077707075        2.8607681329
  C        32.0264916213       23.0791520596        3.8495786777
  C        32.6013322721       24.1129077680        4.5791087626
  C        33.9322739735       24.5146552277        4.3401077643
  C        34.6490878882       23.8681721608        3.3130365478
  C        34.0796151866       22.8242848310        2.5890982524
  C        34.5655473629       25.5822835299        5.1395410232
  C        34.5485655341       25.5564257457        6.5651444575
  C        34.0447136989       24.4435103801        7.3024518442
  C        25.7097762462        8.6112644129        7.3204856140
  C        25.6548369426        8.6201138564        4.5054745134
  C        32.1049081456       21.2330696518       13.8758132933
  C        32.6924082472       22.3758615043       13.1373517766
  C        31.9721901940       23.0197022826       12.1151237855
  C        32.5588988478       24.0423948945       11.3775554604
  C        33.8789729719       24.4657330358       11.6437641379
  C        34.5762712197       23.8408281056       12.6989324035
  C        33.9990010835       22.8063737446       13.4269601101
  C        34.5235922418       25.5375616835       10.8606312243
  C        34.5271997316       25.5341492964        9.4341034579
  C        34.0343091861       24.4332100757        8.6723785176
  C        40.6137233846       17.0783686725        8.7475560094
  C        40.6069752902       17.1471191494       11.5607499416
  C        28.7962100959       14.0939311487       13.7767536214
  C        28.1930591097       12.9428475815       13.0507141375
  C        28.9280077651       12.2237640376       12.0911673764
  C        28.3423891000       11.1648881747       11.4014244910
  C        27.0053289141       10.7842727017       11.6500981208
  C        26.2934214511       11.4831711929       12.6447106043
  C        26.8741844851       12.5473086841       13.3303359268
  C        26.3554686354        9.6931995211       10.8879359966
  C        26.3437306584        9.7004752154        9.4639885203
  C        26.8428806573       10.8026593273        8.7047780528
  C        18.1353112619        3.1789542340        2.3226586875
  C        17.4047790399        4.2760913986        3.0207721717
  C        16.3915651958        3.9972761362        3.9508395641
  C        15.7432708834        5.0370641280        4.6141786649
  C        16.0921452821        6.3811535454        4.3720140758
  C        17.0788571137        6.6509406500        3.4055685061
  C        17.7283817285        5.6138249189        2.7405755539
  C        15.4680894409        7.4890674167        5.1349698152
  C        15.4844312606        7.4892692098        6.5567064523
  C        16.1867221450        6.4962969625        7.3100765487
  C        42.9457344994       31.8594343891        2.0777621786
  C        43.6457349857       30.7721464670        2.8223364736
  C        44.5904456811       31.0932962454        3.8092698047
  C        45.1959602789       30.0875813182        4.5568166949
  C        44.8703173148       28.7344292526        4.3410396757
  C        43.9452648896       28.4203516747        3.3270143848
  C        43.3364407991       29.4256342883        2.5792347434
  C        45.4877329946       27.6549905981        5.1440518808
  C        45.4918773951       27.6806295436        6.5657859064
  C        44.8040512175       28.6880900853        7.3124535687
  C        14.8558787998        8.5621511113        7.2689075691
  C        14.8721901943        8.5605096014        4.4562719003
  C        42.9462689976       31.9612464493       13.8041705846
  C        43.6917201426       30.8852991000       13.0908744452
  C        44.6548455104       31.1911543868       12.1170788803
  C        45.2760920148       30.1714952979       11.3993063329
  C        44.9536258454       28.8210521860       11.6382435803
  C        44.0217175034       28.5235347410       12.6505592990
  C        43.3935931830       29.5403564898       13.3627605564
  C        45.5623304625       27.7236759498       10.8529011824
  C        45.5324721731       27.7170315611        9.4315507425
  C        44.8252719517       28.7066404222        8.6786815886
  C        35.1333866778       26.6270998715        8.7292809476
  C        35.1496201015       26.5891229602       11.5422624500
  C        18.1482085358        3.2464637808       13.7018103631
  C        17.4293160942        4.3435832534       12.9927223331
  C        16.4152611860        4.0521791210       12.0679665858
  C        15.7669116426        5.0826892299       11.3923797997
  C        16.1202313482        6.4281164715       11.6161167528
  C        17.1101758755        6.7115983215       12.5748510876
  C        17.7579010842        5.6827727948       13.2547491192
  C        15.4899846293        7.5237935657       10.8434295070
  C        15.4962434942        7.5071493343        9.4222734906
  C        16.1932706044        6.5055428575        8.6756803369
  H        10.6727205370       12.4677638988       11.8976021316
  H        11.6946265845       10.5528020173       10.6554066714
  H        15.3902548105       11.1667092303       12.7683362390
  H        14.3497596773       13.0698825813       14.0136938847
  H        13.3764903828       11.6311066219        9.1952881104
  H        50.3223591064       22.7485043047       11.9820303257
  H        49.3188222847       24.6227905928       10.6755777887
  H        45.6410897624       24.1597367921       12.8576407603
  H        46.6621665700       22.2886382754       14.1656726927
  H        47.6282088423       23.5752489340        9.2411082209
  H        14.8704706616        8.5878582862       12.6030640732
  H        50.2865899523       22.7025601091        4.0655473580
  H        49.2682063296       24.5753109662        5.3658452825
  H        45.6096223703       24.1080165163        3.1517216479
  H        46.6519560598       22.2525365770        1.8378239190
  H        47.6061242758       23.5512296618        6.8019026797
  H        40.6354566229       17.1284962922        3.4095944321
  H        48.6863988744       14.0953101651       15.7945443755
  H        10.6809771483       12.4675386320        4.0988408322
  H        11.6882911661       10.5249090109        5.3024573760
  H        15.3913829199       11.1554854360        3.2086268924
  H        14.3635065960       13.0849169965        1.9936472886
  H        13.3756326677       11.6213535460        6.7572064726
  H        47.9292175698       14.2220246027        1.7149641818
  H        47.7804793377       14.3777108728       14.4895144921
  H        49.0803984565       18.5507522280        2.8714499147
  H        10.4146818465       14.1345391451        0.0036272161
  H        24.4959953279        3.0372192645       11.9188501478
  H        25.6430306507        4.8975432672       10.7033446605
  H        23.2663843990        7.7612322925       12.8601866895
  H        22.1369099384        5.8904431330       14.0760754756
  H        23.8227454371        5.8067280521        9.2857350580
  H        36.3977814829       32.1792321117       11.9382931043
  H        35.2870416358       30.3487563815       10.6574050850
  H        37.5078519467       27.4352497834       12.9124018119
  H        38.6019795237       29.2785111545       14.1985775831
  H        37.0437444081       29.4314721756        9.2645045671
  H        25.7649700435        8.6266619734       12.6587624326
  H        36.4781133302       32.2379221468        4.1385817314
  H        35.3748990144       30.4169110296        5.4339482769
  H        37.5024653205       27.4862752007        3.1102894100
  H        38.5837274400       29.3191208064        1.8059549675
  H        37.0581457330       29.4533133289        6.8268391394
  H        46.1082517504       26.5871101686        3.3907184422
  H        44.6697083030       35.1158926792       15.8052449932
  H        24.4179238614        3.0425441051        4.1132528083
  H        25.5400853151        4.8820674428        5.3701722354
  H        23.1579863895        7.7694648722        3.2512432080
  H        22.0465500196        5.9168944065        1.9959163518
  H        23.7854617939        5.8046097823        6.8475028621
  H        44.9514798723       34.3873063023        1.6985623071
  H        44.8964025779       34.2042347266       14.4839202500
  H        40.6629144688       33.2076263281        2.8563240793
  H        23.1517648881        1.9574883497        0.0102294262
  H        25.8210515939       19.6514383919       11.9128096649
  H        23.6574314700       19.6886103478       10.6665418534
  H        22.3392735277       16.2404930699       12.8716240634
  H        24.5102723821       16.2045083959       14.0997297317
  H        23.7242882531       17.6731518143        9.2385919052
  H        35.1416316502       15.4668611859       11.9487368662
  H        37.2598046704       15.4209426512       10.6495151088
  H        38.7223081778       18.7660686413       12.9262307169
  H        36.5921512647       18.8045895747       14.2267867711
  H        37.2216657624       17.3192758332        9.2335773954
  H        20.3596507625       17.9580036817       12.6661583754
  H        35.2232324264       15.3375985223        3.9947518968
  H        37.3199652572       15.3236103265        5.3348773027
  H        38.7171175920       18.7735578406        3.1759958794
  H        36.5786822357       18.8321462678        1.8948922621
  H        37.2321168717       17.2916894376        6.7961636301
  H        35.1707006965       26.6693956496        3.3930961002
  H        28.5011873956       21.0814710095       15.9613637019
  H        25.7502499209       19.6375256058        4.1634055858
  H        23.5722673135       19.6849379142        5.3828942534
  H        22.2877994437       16.2005182026        3.2148615177
  H        24.4715164374       16.1611195767        2.0014029858
  H        23.7020405269       17.6616221291        6.7984741570
  H        29.0059472496       21.7230529832        1.7602374099
  H        29.1613518968       21.7469040542       14.6203872322
  H        32.1726528620       18.5969614899        2.9393359545
  H        27.3961140393       19.0624599562        0.0930505677
  H        14.8444575063       19.6391536588        4.1551432378
  H        17.0060435317       19.6825551709        5.3991975047
  H        18.3067976772       16.1932044022        3.2465577073
  H        16.1399831852       16.1651675731        2.0037245533
  H        16.9261732920       17.6926592656        6.8541836990
  H        46.0964848896       15.4637733603        4.0952446889
  H        43.9700646927       15.4136894479        5.3974695388
  H        42.5308911469       18.7928178593        3.1575877342
  H        44.6593849310       18.8203827054        1.8481542789
  H        44.0089262267       17.3557207022        6.8219797861
  H        20.2875837590       17.9064617029        3.4236805852
  H        46.0620624972       15.4254924346       11.9823460752
  H        43.9372033163       15.3788228631       10.6802382916
  H        42.5047739883       18.7680850305       12.9089384268
  H        44.6392619788       18.8060931421       14.2062521044
  H        44.0004132495       17.3438735297        9.2606099316
  H        46.1985148724       26.6819627557       12.6182992902
  H        52.7403658451       21.0619665350        0.1995235469
  H        14.8799160634       19.6687724965       11.8858952188
  H        17.0803252077       19.7393565724       10.7064079694
  H        18.3389270814       16.2321601013       12.8542564902
  H        16.1397474965       16.1856275470       14.0423241677
  H        16.9485004518       17.7074908948        9.2918118428
  H        52.3187071734       21.6719788581       14.2904042359
  H        52.0098993177       21.6994943576        1.4999701428
  H        49.0646597340       18.6069995179       13.2000664840
  H        13.2470578300       19.0162173007       15.9722232984
  H        29.9528571006       12.4333599641        4.2199874681
  H        28.8796921722       10.5175349878        5.4036036529
  H        25.2472717201       11.1916045473        3.2022722872
  H        26.3284793689       13.1114528497        2.0259288980
  H        27.1881237979       11.6648912503        6.7939661242
  H        31.0013027394       22.7671850053        4.0332071544
  H        32.0242742505       24.6324596282        5.3408821586
  H        35.6767924454       24.1686691226        3.1194909520
  H        34.6443492318       22.3002864700        1.8214501994
  H        33.6941017926       23.5719172983        6.7575602256
  H        25.6703141454        8.6025697214        3.4170656146
  H        30.9531373209       22.7013110330       11.9084532507
  H        31.9936427837       24.5409760978       10.5933037282
  H        35.5962234802       24.1534595809       12.9129118325
  H        34.5496141693       22.3019104961       14.2174697502
  H        33.6761269934       23.5534509981        9.1988898355
  H        40.6052100541       17.1278417842       12.6490394930
  H        32.5159995155       14.1435824985        0.2588523797
  H        29.9717913976       12.4888633588       11.9287921740
  H        28.9210537101       10.6032871774       10.6709155942
  H        25.2616665403       11.2033994784       12.8479427689
  H        26.3148024963       13.1008312471       14.0808428316
  H        27.2062611733       11.6785616949        9.2339691958
  H        33.3031307572       14.1941336282       14.4402060539
  H        33.4079690077       14.3958143283        1.6108424588
  H        32.1529222858       18.5748376880       13.2104268064
  H        30.2205034510       14.1952939237        0.0846430216
  H        16.1223188287        2.9604390916        4.1395330636
  H        14.9557158032        4.8171834733        5.3317678580
  H        17.3587033010        7.6840815520        3.2101458606
  H        18.5082517332        5.8166642893        2.0104688164
  H        16.7533040100        5.7388787279        6.7767193930
  H        44.8262268164       32.1403580751        3.9841827706
  H        45.9349257575       30.3410866741        5.3137065090
  H        43.6828829703       27.3783088039        3.1562644668
  H        42.6001271769       29.1904696604        1.8142245690
  H        44.2276973084       29.4351613582        6.7742535815
  H        14.8473685179        8.5430329832        3.3680821674
  H        44.8972148632       32.2338862441       11.9244711546
  H        46.0215833239       30.4125896706       10.6446453175
  H        43.7655814921       27.4837851984       12.8431282781
  H        42.6479322447       29.3176033919       14.1220695462
  H        44.2658094193       29.4688467489        9.2132357867
  H        35.1152286061       26.5990581333       12.6301457123
  H        36.6075983797       35.1338621642        0.1901912922
  H        16.1452467065        3.0124433472       11.8974339167
  H        14.9755399183        4.8555798775       10.6813164006
  H        17.3922951270        7.7472400490       12.7529240574
  H        18.5395798066        5.8932245854       13.9808028412
  H        16.7649520585        5.7555494390        9.2142006290
  H        36.2798036310       34.4810239569       14.2692289697
  H        36.3888350775       34.2059851066        1.5056794433
  H        40.5770699864       33.2006410127       13.1494271198
  H        17.4753947516        1.9441585372       15.9717212716
  H        28.6778106995       18.9284980539        4.2954469310
  H        29.8650653430       19.8569442204       11.6692894069
  H        32.3361790363       16.2286161060       11.7523680234
  H        30.8705113166       15.3724620644        4.2906893745
  H        28.4228276878       17.2767593519        7.1365002356
  H        29.6388023376       14.9095313985        6.6235074831
  H        31.5352741898       20.1254253608        9.3963282812
  H        32.5895641001       17.7279386549        8.9040332810
  H        28.6327777284       17.8487892122       11.0366269750
  H        18.9046820825        0.8521990166        4.3670824439
  H        40.5241176018       35.2300392997       11.9466680583
  H        42.3220152309       34.4162986231       11.5868642119
  H        22.0967383343        0.6999518484        4.3471400012
  H        11.5978300742       18.7115641345        4.3860188270
  H        52.2651066223       18.4298104786       11.6738448905
  H        49.2537107797       16.4804676561       11.5819642403
  H        10.1505807134       15.7985065342        4.2975105053
  H        50.8493741198       17.6921523693       11.9496331565
  H        10.0454436388       17.3946298635        4.0571036440
  H        20.2916211002        0.0041172080        4.0393394390
  H        39.1816416694       36.1256077319       11.6847563913
 Ni        30.9397639824       17.9678266743       10.7434197340
 Ni        31.1062936394       15.9655775396        8.4087414529
 Ni        29.7605443013       19.0873584587        7.9936190100
 Ni        30.0573123680       17.3033638216        5.4126016154
  O        10.6496554222       14.3649644781       13.4805330270
  O        12.6130931751       14.6573553748       14.5787192322
  O        49.1479338510       16.8459839047       15.9847664469
  O        50.3502147660       20.9363752285       13.6431461893
  O        48.3484935427       20.5936168742       14.6609128276
  O        11.0510453763       17.0540927903       14.4953052477
  O        50.3210786374       20.8819536594        2.4118407810
  O        48.3467393828       20.5870513509        1.3320929341
  O        49.5434614894       18.2484887057        2.0734251738
  O        12.3587183169       18.6243942380        0.0047473001
  O        48.6928338761       14.1485732031       14.7459634042
  O         8.2095439392       14.2102875704        1.3278226703
  O        10.7353118259       14.5065488138        2.6694992418
  O        12.5718292144       14.5825604185        1.3335565109
  O        22.8459369240        2.0456819166       13.4813731622
  O        21.6065581090        3.5937774085       14.5839540167
  O        42.0590472991       34.1366589316       15.9715946520
  O        37.9819610739       33.1375258637       13.5677158804
  O        39.2189292413       31.5766811825       14.6624224296
  O        20.3089570199        1.0395866921       14.4963639042
  O        38.0256988754       33.1867797431        2.4208923956
  O        39.2196686358       31.5844409857        1.3310162077
  O        40.6544252574       33.7679703039        2.0633323784
  O        18.2600257242        1.3727827593        0.0034333879
  O        44.6229037242       35.1001593238       14.7515324264
  O        24.2068628442       -0.0001555505        1.3255312956
  O        22.7532596392        2.0578013960        2.5892046615
  O        21.6248542502        3.5964387792        1.3479259672
  O        27.4985951019       18.7485200204       13.4911592043
  O        26.7696825414       16.9296694624       14.6522748151
  O        30.6475069418       19.3558707822        0.0768250392
  O        33.5437550795       16.3387483464       13.5808422884
  O        34.2738430049       18.1656815918       14.7297830214
  O        29.5785087027       17.0671032432       14.5639671295
  O        33.5474802363       16.3404822990        2.4288436013
  O        34.2953476413       18.2391786401        1.4114591860
  O        31.6478763493       18.3129548345        2.1750621460
  O        30.3285727246       15.1608068676        0.0874172069
  O        28.5552683249       21.0345049022       14.8955953946
  O        28.5148043019       20.9560671427        1.4186503412
  O        27.4639381272       18.6745885346        2.6691918055
  O        26.6958306952       16.9302734812        1.4183759591
  O        13.1488990322       18.6929505590        2.5926701502
  O        13.9193979597       16.9159507330        1.4098135502
  O        50.5954262470       19.3500720641        0.0255381009
  O        47.6830225676       16.3271947921        2.4222186733
  O        46.9519615686       18.1759411510        1.3293480652
  O        11.0693055060       17.0154816701        1.4950452465
  O        47.6766372717       16.3354503169       13.6478517072
  O        46.9280595562       18.2356805515       14.6598330413
  O        49.5682373696       18.3178011899       13.9770633469
  O        10.3183818082       15.1004506089        0.0021857379
  O        52.6706274909       21.0280319365        1.2469320715
  O        12.1468050547       20.8913101531       14.6680518788
  O        13.1087453212       18.6135025361       13.3203428813
  O        13.9573269987       16.9868016639       14.6605519951
  O        29.9913019126       14.4402922913        2.7307353969
  O        28.0892807074       14.6549416826        1.4963504071
  O        32.1393592972       16.8546641416        0.0795336194
  O        30.9611492999       20.9417649611        2.4200461203
  O        32.9413479006       20.6000634444        1.3436771186
  O        29.5689829048       17.0781740627        1.5842790980
  O        30.8697317459       20.9436753537       13.6598030705
  O        32.8749229080       20.5833934501       14.6640125916
  O        31.6794766189       18.2567936848       13.9946986463
  O        28.2874222151       18.6764573669        0.0853273061
  O        32.4916976791       14.2119466277        1.3328247466
  O        32.4069558542       14.2197104432       14.8159871181
  O        29.9504181625       14.5077454587       13.4073728834
  O        28.1138553164       14.5897619941       14.7413022873
  O        17.8897079704        1.9651151711        2.6686354322
  O        18.9561260195        3.5264934320        1.4134532498
  O        39.1693603334       34.1391097602        0.0046043804
  O        43.2805150587       33.0594181508        2.3364904629
  O        42.0349344114       31.5065516035        1.2465605520
  O        20.3213345122        1.0371098789        1.4845185138
  O        43.2760786274       33.1825587019       13.5697017084
  O        42.0052359807       31.5841206736       14.5779589115
  O        40.5788856555       33.7747826021       13.9304998869
  O        22.3682985013        1.3848778303        0.0021001818
  O        36.6740675648       35.0994502644        1.2410984770
  O        16.4455978135        0.0643858889       14.6629183739
  O        17.9363499320        2.0433226852       13.3214970687
  O        18.9189810542        3.5931028186       14.6610159830
  O        29.8232991492       18.9773291654       12.0895646265
  O        29.6490375426       18.9735400947        4.1652508701
  O        31.3887879591       16.2773365760       11.9891217170
  O        31.2224156732       16.2641580620        4.0900068609
  O        32.1931768517       17.0702178882        9.5023546966
  O        28.8498390376       17.4413021699       10.1601709985
  O        30.2091146771       15.6826922211        6.7527726130
  O        31.6862364973       18.2376010597        6.5743592995
  O        30.7141440531       19.6399798763        9.5740344921
  O        28.7121181317       18.0830403493        6.6697183326
  O        39.4553793417       35.2439748923       11.9969474108
  O        19.2009209463        0.0037270645        3.9931885013
  O        41.9703403782       35.1726684701       12.0816910013
  O        21.7011588548       -0.0688374512        3.9029689210
  O        51.3650484947       18.6141960449       12.0004541275
  O        10.7512389354       18.7473508801        3.9100633451
  O        50.0797971483       16.4129116144       12.0862971848
  O         9.5243269489       16.4831036116        3.9964057283
 Zr         9.2935855027       16.0533235310       14.1770263684
 Zr        49.8336678453       16.0073232807        1.7517974412
 Zr        22.0714735812        0.0292371800       14.1815240281
 Zr        42.4625472761       35.1503289525        1.7959757984
 Zr        29.5998900122       19.1054754243       14.2763842621
 Zr        29.5819490119       19.1809991938        1.8742119582
 Zr        11.0362521627       19.0516685739        1.8322765551
 Zr        11.0418944453       19.1545148598       14.2467581012
 Zr        31.3529548477       16.1035466964        1.8591584217
 Zr        31.3982670301       16.0219704576       14.2721759417
 Zr        18.6062541058       -0.0023024469        1.7808573658
 Zr        18.5052299687       -0.0111096770       14.2118658929
 Zr        12.2995704214       16.3240737897       15.9850001202
 Zr        48.6124755638       18.8318979418        0.0151890640
 Zr        20.3139066409        2.4717123443       15.9849212309
 Zr        40.6391523488       32.6848224055       15.9730990081
 Zr        28.3439464744       16.3432802603        0.0818268476
 Zr        32.6385205089       18.8465906960        0.0514157398
  H        31.8545763187       19.1409442989        6.2440264463
  O        30.2796469109       15.0852333455       10.0783503902
  H        30.7560164895       15.4302038250       10.9670153207
  H        30.1003653753       14.1342067288       10.1714751969
  O        33.2571811657       16.4144781747        5.8194503597
  H        34.1359265008       16.5470972042        5.4160944825
  H        32.6267188784       16.2334851281        5.0502500928
  O        27.8770572947       20.1483814446        8.1675314866
  H        27.5148416197       19.5299963228        7.4919618169
  H        27.4052916491       19.9435294781        8.9945774380
  O        30.2499766095       20.4367551687        6.3256673486
  H        29.9731618092       20.0072645874        5.4362501720
  H        29.8537821435       21.3221372237        6.3597287233
  H        28.8980993135       16.4659338298       10.2774161503
  H        32.4752780927       17.6212538429        6.3061204112
