     586
 i =      202, E =     -4847.7948210378
  C        11.8588063388       14.0535262888       13.7364715581
  C        12.4562951672       12.8906328852       13.0180597034
  C        11.7044835523       12.1714813609       12.0766761633
  C        12.2808396708       11.1092448986       11.3843558415
  C        13.6215286722       10.7397191831       11.6118276631
  C        14.3548685769       11.4435605567       12.5849603424
  C        13.7819788939       12.5085600033       13.2764318699
  C        14.2609778431        9.6489699748       10.8384703341
  C        14.2562142422        9.6568125803        9.4167734268
  C        13.7430283994       10.7589255240        8.6628677109
  C        49.1267695115       21.2331544919       13.8746793655
  C        48.5499688006       22.4011396294       13.1476117036
  C        49.2999493605       23.0683302917       12.1665019483
  C        48.7330358279       24.1074733220       11.4332791852
  C        47.4025338737       24.5091864088       11.6619676439
  C        46.6716326400       23.8604525686       12.6756116806
  C        47.2340816392       22.8155565517       13.4049809800
  C        46.7722668093       25.5868551650       10.8646782725
  C        46.7612250442       25.5572515868        9.4429136749
  C        47.2612712141       24.4422259105        8.6993899695
  C        14.8600367067        8.5704048220        8.7035208505
  C        14.8917521102        8.5970388277       11.5151407986
  C        49.1132821845       21.2034881906        2.1504725427
  C        48.5279052301       22.3649062131        2.8775999826
  C        49.2671697716       23.0256278469        3.8704741585
  C        48.6908520901       24.0601726976        4.6019681214
  C        47.3604523205       24.4569649326        4.3637254426
  C        46.6400201628       23.8120757712        3.3402065183
  C        47.2135608763       22.7761763770        2.6084045937
  C        46.7219665619       25.5319030334        5.1547712254
  C        46.7335809385       25.5281880567        6.5764802299
  C        47.2490726090       24.4289779687        7.3328342797
  C        40.6164542413       17.0645686038        7.3218731640
  C        40.6218481587       17.0999448571        4.5128403253
  C        11.8829028007       14.0865414588        2.2906921991
  C        12.4722137180       12.9107807908        2.9950361492
  C        11.7145100573       12.1772918479        3.9207699165
  C        12.2810781790       11.0948007361        4.5891573021
  C        13.6199964981       10.7212885607        4.3575753691
  C        14.3581809879       11.4371902892        3.3972018237
  C        13.7928005217       12.5184090043        2.7245370498
  C        14.2535524297        9.6244570574        5.1279314882
  C        14.2522531628        9.6443863959        6.5497698165
  C        13.7424216454       10.7533659663        7.2968225753
  C        22.5136087914        3.2435722759       13.7485921769
  C        23.2337318726        4.3456790090       13.0497280112
  C        24.2313235133        4.0588839673       12.1061200021
  C        24.8652383736        5.0936711967       11.4234531345
  C        24.5172506494        6.4375175424       11.6643693307
  C        23.5476901589        6.7159379066       12.6450253958
  C        22.9090893085        5.6827786739       13.3261759059
  C        25.1296332803        7.5397395027       10.8878972546
  C        25.1013736114        7.5327285455        9.4664237013
  C        24.3952539439        6.5360826980        8.7204741725
  C        38.3038374718       31.9304289913       13.8435463004
  C        37.5769133937       30.8408253494       13.1323132859
  C        36.6185938212       31.1439859772       12.1532875802
  C        36.0044851662       30.1230319664       11.4334791211
  C        36.3342176688       28.7745888910       11.6720418991
  C        37.2632726418       28.4788438247       12.6871139152
  C        37.8815988984       29.4984593795       13.4055093658
  C        35.7328213737       27.6821806172       10.8759264500
  C        35.7619740733       27.6965840314        9.4547923256
  C        36.4671832561       28.6982990823        8.7160639193
  C        25.7258242524        8.6017396406        8.7465101501
  C        25.7305557928        8.6126077694       11.5582807606
  C        38.3280598902       31.9619998334        2.1605827021
  C        37.6049546612       30.8883755281        2.9006910961
  C        36.6768818149       31.1966098967        3.9070666369
  C        36.0663789350       30.1776838113        4.6356986701
  C        36.3695828841       28.8251424949        4.3813594912
  C        37.2744748852       28.5268561063        3.3442570657
  C        37.8872322411       29.5423051658        2.6169562780
  C        35.7629446803       27.7258379079        5.1664956366
  C        35.7775374737       27.7186909452        6.5884272044
  C        36.4743151327       28.7090683050        7.3495594168
  C        46.1354553215       26.6207548705        7.2866312086
  C        46.0880283402       26.5802765349        4.4787312045
  C        22.4613372909        3.2558788371        2.2625352640
  C        23.1566919532        4.3641783580        2.9850496336
  C        24.1629872697        4.0771484172        3.9210874662
  C        24.7927390517        5.1063722859        4.6167333440
  C        24.4360589594        6.4523930483        4.3994869249
  C        23.4526363378        6.7328256898        3.4319233450
  C        22.8186128320        5.7037828634        2.7363446264
  C        25.0693879270        7.5487027009        5.1741820485
  C        25.0708613860        7.5369221301        6.5970766049
  C        24.3793911973        6.5387175192        7.3538428468
  C        26.5659581270       17.8275586710       13.8235636083
  C        25.2644629648       17.8670755834       13.0900410683
  C        25.0215672473       18.8627666456       12.1309644200
  C        23.8187680667       18.8826084376       11.4282174246
  C        22.8247116278       17.9114046376       11.6642355070
  C        23.0654066929       16.9367670907       12.6509265423
  C        24.2711780528       16.9101838207       13.3502835606
  C        21.5584783579       17.9034288501       10.8906727240
  C        21.5649036572       17.8907021889        9.4683813105
  C        22.7733702638       17.7665159184        8.7127743276
  C        34.4256236035       17.2112576303       13.8964062741
  C        35.7395957595       17.1283979451       13.1873332867
  C        36.0096372137       16.0643673652       12.3102510569
  C        37.1865702990       16.0459121045       11.5638061776
  C        38.1318942996       17.0819732197       11.6885293951
  C        37.8759319152       18.1173832585       12.6057586587
  C        36.6924218870       18.1451386180       13.3417479837
  C        39.3832851586       17.0854564542       10.8933612949
  C        39.3701188339       17.0716604004        9.4726487543
  C        38.1551238402       17.1483988488        8.7221360358
  C        20.3216730090       17.9184221062        8.7545738983
  C        20.3313379485       17.9067205870       11.5674879396
  C        34.4385100630       17.2410462270        2.1883183468
  C        35.7364619218       17.1382774154        2.9184299358
  C        35.9483206805       16.1358686502        3.8772391581
  C        37.1367153631       16.0973668657        4.6033546570
  C        38.1423803385       17.0607226939        4.3907664327
  C        37.9361244505       18.0380430958        3.3990302488
  C        36.7477906844       18.0805843495        2.6755768277
  C        39.3929219917       17.0692255927        5.1834060673
  C        39.3747023898       17.0669974108        6.6051773355
  C        38.1580954062       17.1482251049        7.3550848823
  C        35.1484259752       26.6397328909        7.2940324314
  C        35.1698358194       26.6558310694        4.4852291340
  C        26.5781044963       17.8251279342        2.3367996496
  C        25.2665325147       17.8775494672        3.0454460201
  C        25.0115402299       18.8716717325        4.0024610819
  C        23.7917067116       18.8993723487        4.6725660279
  C        22.7991124760       17.9341599122        4.4102565307
  C        23.0495141359       16.9657121324        3.4211405813
  C        24.2691154648       16.9353990486        2.7488970475
  C        21.5333769306       17.9152582918        5.1787551712
  C        21.5520114593       17.8949733759        6.6002221007
  C        22.7670253962       17.7681832317        7.3464073575
  C        14.0479735103       17.8310633654        2.2915121815
  C        15.3547598657       17.8935068778        3.0111844047
  C        15.6117728813       18.8994766759        3.9558095369
  C        16.8223033657       18.9239332612        4.6456980434
  C        17.8098395923       17.9453682527        4.4130538723
  C        17.5584272674       16.9651045298        3.4345491929
  C        16.3473116927       16.9359103727        2.7462703248
  C        19.0772478671       17.9268447166        5.1844976789
  C        19.0702597866       17.9156148395        6.6068091762
  C        17.8597318623       17.8160733133        7.3623599831
  C        46.8007987273       17.2172223354        2.1633524329
  C        45.5063966086       17.1489284169        2.9053799374
  C        45.3015023548       16.1690796947        3.8895096905
  C        44.1170010588       16.1423365786        4.6217043163
  C        43.1041097869       17.0948327615        4.3934762528
  C        43.3057341331       18.0536836043        3.3819052856
  C        44.4915892241       18.0845532342        2.6506934378
  C        41.8502555895       17.0955237401        5.1847448612
  C        41.8602405791       17.0955692291        6.6072150945
  C        43.0709755809       17.2090536253        7.3607438807
  C        20.3143157212       17.9187940936        7.3199749682
  C        20.3038253826       17.9104613453        4.5071111730
  C        46.7867989609       17.2330163055       13.8819144504
  C        45.4866232614       17.1302510944       13.1608520225
  C        45.2718291727       16.1334111661       12.1971484396
  C        44.0853737133       16.1063018842       11.4687571619
  C        43.0846307600       17.0728670117       11.6874677062
  C        43.2910719132       18.0415599567       12.6872278621
  C        44.4788366511       18.0750531426       13.4106785937
  C        41.8358314626       17.0849368910       10.8954206438
  C        41.8534501790       17.0880369336        9.4745484264
  C        43.0680909846       17.2030227531        8.7273401895
  C        46.1531762746       26.6371288973        8.7211828402
  C        46.1623363645       26.6559734185       11.5308219419
  C        14.0416859753       17.8285456082       13.7018943717
  C        15.3579199560       17.8959404181       13.0053503879
  C        15.6317053576       18.9122449766       12.0781388170
  C        16.8578811165       18.9444543661       11.4187014559
  C        17.8357451001       17.9593239351       11.6617121961
  C        17.5681437578       16.9705453300       12.6256025053
  C        16.3442310460       16.9378294470       13.2886324580
  C        19.1027686054       17.9329827812       10.8951830587
  C        19.0836713087       17.9179025036        9.4740370561
  C        17.8663120806       17.8173584760        8.7284901733
  C        28.8057504386       14.0945455716        2.3975484196
  C        28.1896879533       12.9275647230        3.0939259690
  C        28.9258857964       12.1622389098        4.0109884900
  C        28.3279381591       11.0854730176        4.6614599858
  C        26.9817533701       10.7487900321        4.4158540411
  C        26.2648306598       11.4970329603        3.4651692592
  C        26.8593746689       12.5751618920        2.8148416722
  C        26.3195365883        9.6619063451        5.1731845994
  C        26.3207505585        9.6802152880        6.5938255988
  C        26.8345134560       10.7884487529        7.3394186800
  C        32.1802467423       21.2369146463        2.1525229163
  C        32.7722085784       22.4021771108        2.8731006465
  C        32.0280594928       23.0696862870        3.8580726653
  C        32.5981312835       24.1106738741        4.5843151738
  C        33.9276678169       24.5101347550        4.3479542022
  C        34.6540337939       23.8599619938        3.3323831663
  C        34.0864109160       22.8146839126        2.6068847907
  C        34.5574541482       25.5855789893        5.1465914561
  C        34.5540133089       25.5561278047        6.5681839689
  C        34.0474760044       24.4408345027        7.3081111593
  C        25.7138453055        8.6006959212        7.3120768192
  C        25.6780617918        8.6153557524        4.4985214264
  C        32.1041620149       21.2340548919       13.8782023878
  C        32.6976822566       22.3854264342       13.1364104293
  C        31.9596451195       23.0557570846       12.1485398065
  C        32.5429100388       24.0820570926       11.4091652207
  C        33.8771548645       24.4694103106       11.6418074156
  C        34.5974164467       23.8146738729       12.6589533051
  C        34.0193095191       22.7815092167       13.3920441202
  C        34.5187364528       25.5486273437       10.8562186733
  C        34.5329447858       25.5383142364        9.4346555496
  C        34.0358675882       24.4331465370        8.6747003692
  C        40.6131057704       17.0641354862        8.7566498867
  C        40.6082022606       17.1081116638       11.5674149953
  C        28.7418891107       14.0613023904       13.8199247092
  C        28.1401588249       12.9116146179       13.0805455650
  C        28.8871523814       12.2154795238       12.1170515683
  C        28.3142556751       11.1569253506       11.4151962145
  C        26.9802419932       10.7679164971       11.6536455672
  C        26.2514017477       11.4525660875       12.6439124836
  C        26.8218049579       12.5122634352       13.3466231969
  C        26.3443221897        9.6740281190       10.8807471918
  C        26.3342614514        9.6867827388        9.4592763095
  C        26.8379387060       10.7926831161        8.7050381702
  C        18.1354299227        3.1810343955        2.3222710040
  C        17.4059987230        4.2782135318        3.0207508466
  C        16.3905039196        3.9997725399        3.9485078763
  C        15.7427086956        5.0397064502        4.6119843673
  C        16.0943646292        6.3834782175        4.3721590239
  C        17.0834925861        6.6530708073        3.4081408776
  C        17.7326523599        5.6157815486        2.7430803394
  C        15.4699765931        7.4911141725        5.1352226364
  C        15.4852049928        7.4903660090        6.5569368075
  C        16.1867664885        6.4967675712        7.3101206729
  C        42.9460248777       31.8595367599        2.0779445351
  C        43.6463174811       30.7718998552        2.8219874987
  C        44.5918424694       31.0932317429        3.8080662240
  C        45.1974885861       30.0876860783        4.5557810591
  C        44.8711381204       28.7346170853        4.3408428716
  C        43.9454191988       28.4202703262        3.3275330071
  C        43.3366460216       29.4254038565        2.5794542635
  C        45.4886867415       27.6553065901        5.1440253946
  C        45.4927494015       27.6808801172        6.5657134858
  C        44.8055902995       28.6888626794        7.3123564072
  C        14.8562542683        8.5628633496        7.2693005761
  C        14.8747474051        8.5629270104        4.4566381230
  C        42.9464409624       31.9615146657       13.8038597515
  C        43.6916857467       30.8853859496       13.0904412758
  C        44.6561847576       31.1912770763       12.1180388728
  C        45.2776794812       30.1716731963       11.4003203555
  C        44.9540199752       28.8213489915       11.6380822270
  C        44.0207070877       28.5237129279       12.6490321372
  C        43.3924672048       29.5404849169       13.3612118356
  C        45.5629609291       27.7239382483       10.8527903351
  C        45.5331770873       27.7172576796        9.4314935049
  C        44.8268284939       28.7074721169        8.6785427731
  C        35.1391611984       26.6294904663        8.7286172339
  C        35.1299170289       26.6071162415       11.5383407820
  C        18.1484717644        3.2470083050       13.7015834383
  C        17.4298947364        4.3437882755       12.9923225559
  C        16.4147884684        4.0524807135       12.0686315138
  C        15.7664931247        5.0830777599       11.3931895329
  C        16.1209638440        6.4283590146       11.6160291060
  C        17.1121984044        6.7117694317       12.5734395850
  C        17.7598512772        5.6828926824       13.2532768670
  C        15.4904559776        7.5240219242       10.8435562988
  C        15.4962663394        7.5073173296        9.4224215646
  C        16.1929862092        6.5055849380        8.6757254634
  H        10.6722600513       12.4654194637       11.8998996827
  H        11.6944966594       10.5505952267       10.6579879800
  H        15.3920536787       11.1693067068       12.7663348339
  H        14.3515642674       13.0720217195       14.0115912275
  H        13.3761330107       11.6310968874        9.1961885591
  H        50.3226538552       22.7482629644       11.9817639495
  H        49.3195326644       24.6226639693       10.6756556306
  H        45.6421957256       24.1613577502       12.8588750457
  H        46.6631825761       22.2904625990       14.1672628841
  H        47.6299510342       23.5758984247        9.2410604765
  H        14.8721757288        8.5883921479       12.6034524245
  H        50.2872188186       22.7027665346        4.0653628914
  H        49.2693181011       24.5757020955        5.3653691096
  H        45.6106677296       24.1094434584        3.1510663019
  H        46.6527479385       22.2539854839        1.8368546391
  H        47.6080555571       23.5519590485        6.8019050585
  H        40.6222557405       17.0746817175        3.4247400715
  H        48.6871065157       14.0950315690       15.7948584675
  H        10.6809503305       12.4661910925        4.0979416250
  H        11.6891575060       10.5241517964        5.3015425957
  H        15.3937401400       11.1595845188        3.2115713136
  H        14.3653777948       13.0881277098        1.9964624398
  H        13.3756559291       11.6219888317        6.7581586223
  H        47.9300822990       14.2184808680        1.7162066303
  H        47.7800181872       14.3737929468       14.4903527175
  H        49.0829584938       18.5519800298        2.8724811221
  H        10.4159885769       14.1343506497        0.0041574075
  H        24.4874220995        3.0186008879       11.9181380648
  H        25.6389780388        4.8708987418       10.6919197372
  H        23.2716918828        7.7507065811       12.8371066458
  H        22.1383650362        5.8884185089       14.0650322233
  H        23.8343289134        5.7792983782        9.2610890685
  H        36.3801111282       32.1869764536       11.9588423041
  H        35.2605347715       30.3606155268       10.6762860938
  H        37.5248547294       27.4400243295       12.8774799158
  H        38.6246926222       29.2791070248       14.1684709392
  H        37.0339303581       29.4477053673        9.2609003061
  H        25.7645557602        8.5961713935       12.6461334492
  H        36.4551949671       32.2407593468        4.1159484966
  H        35.3416598007       30.4222314620        5.4091379390
  H        37.5201651851       27.4866556681        3.1408755875
  H        38.6087856819       29.3170131158        1.8354520499
  H        37.0475079795       29.4663864087        6.8225669146
  H        46.1095507437       26.5877406083        3.3906989279
  H        44.6682838449       35.1161077096       15.8088323750
  H        24.4424556424        3.0388356706        4.0848393753
  H        25.5769681797        4.8766465308        5.3349191839
  H        23.1654368290        7.7673537165        3.2550521897
  H        22.0437354669        5.9175817276        2.0037605666
  H        23.8057714336        5.7844854098        6.8229893269
  H        44.9538567220       34.3904441217        1.7002913205
  H        44.9018457799       34.2067789557       14.4855448872
  H        40.6657660960       33.2090718054        2.8583015503
  H        23.1507795647        1.9574907984        0.0105535180
  H        25.7929774937       19.6090477440       11.9529669384
  H        23.6315774909       19.6602051653       10.6906785357
  H        22.3086360882       16.1781020185       12.8399332714
  H        24.4703986172       16.1442936660       14.0963160231
  H        23.7107295857       17.6379744656        9.2463492926
  H        35.2786328484       15.2630042271       12.2181513074
  H        37.3888994705       15.2217737987       10.8826463773
  H        38.6011774485       18.9221535853       12.7077159639
  H        36.4733444387       18.9621427165       14.0254277943
  H        37.2146843435       17.2397673103        9.2589215355
  H        20.3336708862       17.9412927729       12.6554917844
  H        35.1673632370       15.3979906166        4.0478115803
  H        37.2985664562       15.3149308006        5.3416713413
  H        38.7056049382       18.7883673151        3.2294224223
  H        36.5695186585       18.8512684599        1.9295004417
  H        37.2190852752       17.2410501473        6.8173314378
  H        35.1379729494       26.6823725961        3.3976605966
  H        28.5118345910       21.0879003298       15.9643870255
  H        25.7774963015       19.6162419565        4.2083413589
  H        23.5943313510       19.6744435589        5.4099039917
  H        22.2911962344       16.2138431030        3.2124731410
  H        24.4783173044       16.1769472690        1.9983429746
  H        23.7001762449       17.6412394861        6.8056476641
  H        28.9926057799       21.7222095543        1.7779725579
  H        29.1481949840       21.7533290186       14.6074294906
  H        32.1273245458       18.5515314944        2.9689136811
  H        27.4031377920       19.0768006486        0.0962621349
  H        14.8520443906       19.6570558903        4.1346754094
  H        17.0175629525       19.7091753173        5.3728895052
  H        18.3109529455       16.2022451319        3.2456243190
  H        16.1412918837       16.1653225232        2.0072085627
  H        16.9190455771       17.7066144073        6.8306873640
  H        46.0881175487       15.4413694288        4.0748534364
  H        43.9621661642       15.3746316801        5.3767154011
  H        42.5337714506       18.7982864885        3.1986379875
  H        44.6609262860       18.8404470272        1.8872788056
  H        44.0086230738       17.3340991132        6.8267634798
  H        20.3021891263       17.9473896910        3.4191676681
  H        46.0496933775       15.3937744817       12.0217970029
  H        43.9201906561       15.3319841977       10.7227579935
  H        42.5234370408       18.7925841230       12.8617238205
  H        44.6598479114       18.8408363718       14.1609241957
  H        44.0035433441       17.3226923777        9.2662531845
  H        46.1993092466       26.6825501415       12.6182612193
  H        52.7413892057       21.0627103917        0.1997860117
  H        14.8742781504       19.6704723064       11.8922007474
  H        17.0719270768       19.7356400622       10.7033961839
  H        18.3159369989       16.2042261614       12.8189993684
  H        16.1207331764       16.1629286033       14.0177765461
  H        16.9304632394       17.7088611130        9.2684533370
  H        52.3228935433       21.6735721754       14.2892022518
  H        52.0137273225       21.7025511753        1.5006896446
  H        49.0681242549       18.6082146959       13.1991027498
  H        13.2475909443       19.0159615930       15.9714729947
  H        29.9671846159       12.4183651650        4.1945629331
  H        28.9000686627       10.4903972902        5.3700450383
  H        25.2237688454       11.2472486604        3.2709387538
  H        26.3058270051       13.1728556372        2.0947215813
  H        27.1983118913       11.6571982320        6.7991121680
  H        31.0073891337       22.7478808773        4.0504795939
  H        32.0158126863       24.6284666495        5.3432735398
  H        35.6831762419       24.1593113226        3.1447885797
  H        34.6520569050       22.2875439235        1.8420227927
  H        33.6908237786       23.5717825595        6.7626466299
  H        25.6983122450        8.6028349654        3.4101922817
  H        30.9305279784       22.7536436223       11.9680143245
  H        31.9649254221       24.6032050455       10.6489941385
  H        35.6297830232       24.1040680822       12.8442696110
  H        34.5804996504       22.2526030773       14.1588569246
  H        33.6715906181       23.5581581014        9.2058065009
  H        40.6063811681       17.0906601381       12.6556054021
  H        32.5202594617       14.1521086532        0.2413999583
  H        29.9195366316       12.5139135774       11.9436827757
  H        28.9009002955       10.6100774092       10.6798956955
  H        25.2192396037       11.1649185071       12.8333154775
  H        26.2562505757       13.0576551632       14.0986102490
  H        27.2017796916       11.6650588308        9.2397056783
  H        33.2864735928       14.1752492074       14.4145656253
  H        33.4051363052       14.3881805227        1.6138795470
  H        32.1298170433       18.5806163184       13.1192239157
  H        30.2239373812       14.1910873199        0.0817716600
  H        16.1185992162        2.9632491719        4.1350188608
  H        14.9534222439        4.8202486506        5.3277974335
  H        17.3657216792        7.6859764720        3.2148913786
  H        18.5144332206        5.8185387558        2.0149854075
  H        16.7533500394        5.7394328945        6.7766468699
  H        44.8280688063       32.1403150096        3.9823199838
  H        45.9373507966       30.3414350870        5.3117320601
  H        43.6828769859       27.3781811872        3.1573038295
  H        42.6000868400       29.1900601656        1.8147369554
  H        44.2302647374       29.4366519000        6.7740517794
  H        14.8510493422        8.5462441336        3.3684177667
  H        44.8996791580       32.2339519576       11.9264965695
  H        46.0245289995       30.4128857218       10.6470242950
  H        43.7639401185       27.4839732772       12.8407887853
  H        42.6461416388       29.3177009042       14.1198297378
  H        44.2683032927       29.4703411870        9.2131330588
  H        35.0889125525       26.6203970708       12.6258431290
  H        36.6050648290       35.1340638747        0.1857416557
  H        16.1438241381        3.0128924468       11.8987891414
  H        14.9742562390        4.8561997512       10.6830171163
  H        17.3955691640        7.7472581213       12.7504346366
  H        18.5426320231        5.8934244434       13.9781165148
  H        16.7644488509        5.7553570945        9.2141447513
  H        36.2783089040       34.4828086589       14.2679844917
  H        36.3805874298       34.2093466809        1.5049112522
  H        40.5806904547       33.2029422262       13.1483383334
  H        17.4707705625        1.9475355395       15.9691618996
  H        28.8027241233       19.0768916323        4.3889495775
  H        30.1336490525       19.7918823038       11.5907729169
  H        32.1884793905       16.4091307960       11.5782850472
  H        31.0207691066       15.5079250905        4.2872221240
  H        28.7076196914       17.0741455591        6.9731939103
  H        29.2617569059       15.0334448806        5.4286486768
  H        32.0708946594       19.0547208926        8.9019596045
  H        33.3412250177       17.3269484901        9.6937992151
  H        29.3404793960       16.9720285029        9.4679282656
  H        18.8532480477        0.8689921876        4.3403223929
  H        40.5279612506       35.2290598761       11.9468896873
  H        42.3241671067       34.4189980373       11.5852142496
  H        22.0878021035        0.6921269077        4.3568667753
  H        11.5968734726       18.7124441623        4.3877379044
  H        52.2650481277       18.4316285477       11.6725014146
  H        49.2552499370       16.4767289761       11.5792811866
  H        10.1496320392       15.7982829856        4.2979145335
  H        50.8503493484       17.6925823533       11.9489762557
  H        10.0457607638       17.3946505614        4.0569986828
  H        20.2145316826        0.0022770737        4.0471681699
  H        39.1836794821       36.1244731453       11.6812658814
 Ni        30.1039653598       17.4660649970       11.7384896442
 Ni        31.2876661214       16.3560281753        8.1712332095
 Ni        30.0987490971       18.7957208573        7.9923988266
 Ni        30.0060369106       17.2867874055        5.1627671801
  O        10.6499587461       14.3650726784       13.4806972829
  O        12.6130742614       14.6574384630       14.5788752896
  O        49.1476932875       16.8458939111       15.9848022300
  O        50.3501907801       20.9360145193       13.6430711314
  O        48.3485149640       20.5932721751       14.6609397848
  O        11.0515764616       17.0537872082       14.4957022844
  O        50.3209556168       20.8816902840        2.4120503361
  O        48.3466623787       20.5867699848        1.3323418716
  O        49.5434065822       18.2483958238        2.0734731379
  O        12.3589121192       18.6247013048        0.0049394340
  O        48.6932301635       14.1485793411       14.7462008479
  O         8.2097557969       14.2106238139        1.3277915385
  O        10.7352845744       14.5068318874        2.6694552603
  O        12.5717608275       14.5827557871        1.3336965109
  O        22.8444921762        2.0420414494       13.4822763187
  O        21.6064156287        3.5927238748       14.5837388708
  O        42.0582792721       34.1374075939       15.9740093472
  O        37.9819497815       33.1385085512       13.5675270017
  O        39.2183851955       31.5764869459       14.6619019921
  O        20.3084500494        1.0397415814       14.4970619188
  O        38.0245905505       33.1856720244        2.4202875990
  O        39.2191448701       31.5837123953        1.3315373060
  O        40.6522832954       33.7694214810        2.0654438272
  O        18.2554235788        1.3763214947        0.0019412231
  O        44.6222403710       35.1005102872       14.7536612264
  O        24.2053867229        0.0000521903        1.3259268518
  O        22.7530877140        2.0577925006        2.5889245092
  O        21.6245873482        3.5963228498        1.3480458595
  O        27.4133208120       18.7485577291       13.5739325268
  O        26.7291774405       16.8659920228       14.6570900357
  O        30.6577734708       19.4078827954        0.0643425091
  O        33.5479582851       16.3354741638       13.5912684203
  O        34.2720543447       18.1720462389       14.7264398241
  O        29.5711012288       17.0672536547       14.5713693441
  O        33.5525551270       16.3411791660        2.4174867413
  O        34.2987057918       18.2412664178        1.4096563934
  O        31.6501235747       18.3179826575        2.1569992102
  O        30.3219078482       15.1573345842        0.0810361644
  O        28.5512136958       21.0403027288       14.8977009934
  O        28.5149330476       20.9548375849        1.4196584661
  O        27.4706940287       18.6768537939        2.6702637199
  O        26.6952110550       16.9323551550        1.4221519946
  O        13.1487360036       18.6931639839        2.5922182975
  O        13.9193869974       16.9162486380        1.4100939639
  O        50.5960471582       19.3502339724        0.0261662466
  O        47.6811645826       16.3277760434        2.4230270369
  O        46.9494468647       18.1758286080        1.3311417114
  O        11.0692881675       17.0157160588        1.4948023324
  O        47.6760192787       16.3357575461       13.6480180320
  O        46.9269096774       18.2360705862       14.6594560131
  O        49.5687354665       18.3177600045       13.9774983861
  O        10.3185634126       15.1001956460        0.0024486227
  O        52.6707193435       21.0278672110        1.2469157465
  O        12.1468071972       20.8912715453       14.6682414142
  O        13.1063721858       18.6138978286       13.3209278105
  O        13.9551375997       16.9862959331       14.6608400549
  O        29.9938155769       14.4418328367        2.7341077446
  O        28.0895111187       14.6534874663        1.4995505136
  O        32.0972358080       16.8849928763        0.0264396646
  O        30.9644970830       20.9466913668        2.4186538991
  O        32.9454399023       20.6023733360        1.3438380233
  O        29.5635552193       17.0806735831        1.5785335041
  O        30.8756267440       20.9535287860       13.6561903848
  O        32.8791089056       20.5893621236       14.6606186612
  O        31.6435565199       18.3042743415       13.9156242972
  O        28.2881289485       18.6766650477        0.0847727580
  O        32.4904701968       14.2134781036        1.3274155200
  O        32.4045292079       14.2200662714       14.8191836061
  O        29.9113818170       14.4352216737       13.4844381637
  O        28.0368862578       14.5842071313       14.7501566736
  O        17.8892590393        1.9666310587        2.6678603311
  O        18.9562640289        3.5271429904        1.4130481586
  O        39.1686650145       34.1388779623        0.0023724499
  O        43.2801729479       33.0589910253        2.3368593782
  O        42.0345247016       31.5064520767        1.2467973488
  O        20.3177287041        1.0368833817        1.4851596972
  O        43.2760573108       33.1824934243       13.5697691923
  O        42.0052876217       31.5840423093       14.5779098322
  O        40.5790768975       33.7751172133       13.9308179775
  O        22.3673596767        1.3846719174        0.0031273985
  O        36.6727796914       35.0998096564        1.2383895717
  O        16.4455601423        0.0643568127       14.6632423990
  O        17.9364339010        2.0433782729       13.3212475430
  O        18.9191811606        3.5931337492       14.6607918216
  O        29.5197336359       19.2096765668       12.0758689211
  O        29.7493307124       18.9690318340        4.1647500208
  O        31.3500523340       16.0468529442       11.9883694396
  O        31.2266951253       16.4174200900        3.9908077282
  O        33.4980494249       17.1485742702       10.6649572362
  O        30.1964663769       17.4333739623        9.3369133694
  O        29.8166773356       15.5961122844        6.0016440525
  O        32.6238675926       17.8060339534        8.2446335161
  O        31.3838243605       19.7817210613        9.2312021115
  O        28.9721719533       17.9631438081        6.6569062840
  O        39.4567948156       35.2438470107       11.9968493762
  O        19.1412484351        0.0045195437        3.9956572027
  O        41.9695737858       35.1726557273       12.0820148276
  O        21.6913608564       -0.0692135109        3.9011142135
  O        51.3650151539       18.6144000208       12.0002901074
  O        10.7510885964       18.7470806943        3.9101486992
  O        50.0796086068       16.4127199553       12.0866508783
  O         9.5238461340       16.4831963008        3.9963096727
 Zr         9.2975814182       16.0527502675       14.1773463197
 Zr        49.8363204516       16.0069955124        1.7516687199
 Zr        22.0732228733        0.0297845134       14.1839334073
 Zr        42.4609626524       35.1535611560        1.8061797437
 Zr        29.5578705107       19.1177648178       14.2447842933
 Zr        29.5922192882       19.1769501323        1.8630674750
 Zr        11.0386256107       19.0520334246        1.8331951493
 Zr        11.0441384866       19.1548625526       14.2461649344
 Zr        31.3507711072       16.1179657404        1.8188868495
 Zr        31.3714443930       16.0000255765       14.2038701478
 Zr        18.6011674636       -0.0011452151        1.7684121494
 Zr        18.5065015340       -0.0073175028       14.2087175162
 Zr        12.3023809776       16.3235195736       15.9857766540
 Zr        48.6167854198       18.8330595059        0.0160520283
 Zr        20.3153229339        2.4737584962       15.9852986852
 Zr        40.6436926210       32.6872779677       15.9733018513
 Zr        28.3400638380       16.3418790731        0.0763843888
 Zr        32.6122513163       18.8519046026        0.0336868030
  H        33.0970770209       17.9876830326        7.4176134099
  O        30.9553044251       14.6641807092        9.4869200320
  H        31.0188170200       15.0601954431       10.4035595005
  H        30.1211911404       14.1657083878        9.4825447504
  O        32.1896258321       15.3058979316        6.7494534117
  H        32.6668064008       15.8970386290        6.1389216349
  H        31.2552129013       15.2123251711        6.3033934923
  O        27.7001560566       20.4416395858        6.9051951299
  H        27.8663547521       19.4648174970        6.8619448438
  H        27.3313958580       20.5939600124        7.7902111905
  O        30.3675543944       20.3620768809        6.6564567429
  H        30.3808405577       19.9578669812        5.7454207996
  H        29.4346759893       20.7115811072        6.7220671453
  H        34.4123425112       16.8419691464       10.7672404988
  H        31.6165592339       20.5893708340        8.7391654761
