     586
 i =      194, E =     -4847.8325206764
  C        11.8582676448       14.0535019115       13.7364830323
  C        12.4557155988       12.8901964186       13.0183235127
  C        11.7044284431       12.1722272565       12.0756649689
  C        12.2807280034       11.1099817656       11.3832665171
  C        13.6208703222       10.7392336410       11.6119254578
  C        14.3535115913       11.4416903785       12.5866088675
  C        13.7806677442       12.5066668954       13.2781612690
  C        14.2605507613        9.6487060472       10.8384785621
  C        14.2562824059        9.6568067334        9.4167607337
  C        13.7432786872       10.7589755949        8.6627958863
  C        49.1263590894       21.2335306923       13.8747607554
  C        48.5495666810       22.4013142968       13.1475693171
  C        49.2997810034       23.0690388379       12.1669952269
  C        48.7327697666       24.1080342484       11.4337013021
  C        47.4019926511       24.5091295363       11.6618401149
  C        46.6707754026       23.8597085899       12.6747744105
  C        47.2332714733       22.8148893309       13.4041959146
  C        46.7718697732       25.5868649087       10.8645653477
  C        46.7610645383       25.5573351706        9.4428233557
  C        47.2609981362       24.4422223310        8.6993684628
  C        14.8603237320        8.5704942616        8.7035245413
  C        14.8910771737        8.5965797487       11.5151164965
  C        49.1128842821       21.2035123971        2.1504215316
  C        48.5274820105       22.3646852980        2.8777525362
  C        49.2668812323       23.0258832678        3.8702069223
  C        48.6904593858       24.0603590268        4.6016713572
  C        47.3598273495       24.4565993542        4.3637976907
  C        46.6391385612       23.8110647143        3.3408957489
  C        47.2127714265       22.7751891549        2.6091538410
  C        46.7214352398       25.5316241020        5.1547566689
  C        46.7333494974       25.5281200997        6.5764349317
  C        47.2487440687       24.4289003813        7.3328288210
  C        40.6312127713       17.1271546731        7.3229462208
  C        40.6502009127       17.1599314535        4.5121709013
  C        11.8825709650       14.0864215992        2.2904629546
  C        12.4716406584       12.9100474063        2.9943678717
  C        11.7144042973       12.1777382760        3.9213644328
  C        12.2807822862       11.0952018195        4.5898796535
  C        13.6191805131       10.7205101723        4.3572779772
  C        14.3567291818       11.4349487266        3.3952929322
  C        13.7914817093       12.5161927491        2.7225626176
  C        14.2529159861        9.6239476658        5.1278473259
  C        14.2522270525        9.6442635735        6.5497026409
  C        13.7426081124       10.7533548371        7.2967436737
  C        22.5129436719        3.2444317820       13.7472090449
  C        23.2310646687        4.3485729707       13.0459448585
  C        24.2303154927        4.0642851793       12.1032509158
  C        24.8626829114        5.1003552779       11.4202556075
  C        24.5120974349        6.4440132518       11.6593852394
  C        23.5401239172        6.7199846645       12.6384940364
  C        22.9031760550        5.6854886430       13.3199563453
  C        25.1247475431        7.5473705710       10.8828756517
  C        25.1006338407        7.5392538184        9.4609003719
  C        24.3960938083        6.5419106403        8.7144557837
  C        38.3056358225       31.9280742853       13.8422740481
  C        37.5860929282       30.8352976935       13.1311929702
  C        36.6326626932       31.1299513791       12.1444392922
  C        36.0289947039       30.1033316099       11.4243600121
  C        36.3625214598       28.7562105579       11.6694150745
  C        37.2858212361       28.4695856910       12.6930139394
  C        37.8943534620       29.4946665311       13.4112427842
  C        35.7699152511       27.6598853251       10.8739843505
  C        35.7871232728       27.6803310774        9.4504388115
  C        36.4871163677       28.6829432089        8.7117291671
  C        25.7287658223        8.6062936505        8.7405615568
  C        25.7240062015        8.6218708048       11.5528142593
  C        38.3266243917       31.9615458481        2.1593916751
  C        37.6018412319       30.8887800144        2.8948645331
  C        36.6857719889       31.1949138308        3.9134195725
  C        36.0784485290       30.1745627971        4.6417850446
  C        36.3705891599       28.8213030777        4.3750261368
  C        37.2607096621       28.5260695860        3.3235525665
  C        37.8714787575       29.5427018698        2.5972738346
  C        35.7702991103       27.7204479250        5.1598500262
  C        35.7876891251       27.7111482880        6.5837006666
  C        36.4876274524       28.6974233472        7.3437499085
  C        46.1354353935       26.6208109611        7.2865329366
  C        46.0873902440       26.5798982796        4.4786857965
  C        22.4629278615        3.2554719744        2.2617121231
  C        23.1631216847        4.3629383862        2.9826791531
  C        24.1690551414        4.0730136573        3.9181966478
  C        24.8033677270        5.1003505241        4.6128223731
  C        24.4519280277        6.4474333231        4.3944486472
  C        23.4690193839        6.7308269732        3.4273024837
  C        22.8302641032        5.7035505776        2.7330682824
  C        25.0884576174        7.5428429473        5.1685512096
  C        25.0824040978        7.5364777469        6.5914610344
  C        24.3856108074        6.5417436281        7.3477431900
  C        26.5736648443       17.8251077617       13.7844722024
  C        25.2721941236       17.8792179820       13.0542757139
  C        25.0298926568       18.8723626733       12.0925824171
  C        23.8209206800       18.8990488271       11.4004445566
  C        22.8223880705       17.9351127276       11.6488869671
  C        23.0620876633       16.9653402592       12.6400857104
  C        24.2717996095       16.9341078460       13.3306799347
  C        21.5542369336       17.9234331726       10.8805643035
  C        21.5597356087       17.8974895054        9.4591072135
  C        22.7672531561       17.7629628705        8.7035522358
  C        34.4232159780       17.2278423368       13.8787851945
  C        35.7175210678       17.1666544572       13.1498400559
  C        35.9195473554       16.2097448438       12.1412614088
  C        37.1048607777       16.1944757591       11.4139458240
  C        38.1240876775       17.1327638732       11.6733140190
  C        37.9269461720       18.0640725699       12.7123111971
  C        36.7387282745       18.0866226069       13.4369270568
  C        39.3770289857       17.1441230132       10.8896663984
  C        39.3724119740       17.1507204050        9.4656540530
  C        38.1678666859       17.2716558482        8.7068546621
  C        20.3158108363       17.9192024992        8.7475102450
  C        20.3285041128       17.9281275506       11.5600542740
  C        34.4718176621       17.2460011808        2.1848554104
  C        35.7729744587       17.1660416826        2.9047969539
  C        35.9870210405       16.1781940620        3.8794307907
  C        37.1720104728       16.1586423631        4.6088327519
  C        38.1741558835       17.1232131882        4.3812668177
  C        37.9669654558       18.0826349950        3.3723243239
  C        36.7789252865       18.1096963632        2.6478835302
  C        39.4195031773       17.1418991838        5.1762048182
  C        39.3945968851       17.1491700594        6.5986372130
  C        38.1784080204       17.2681971331        7.3388125531
  C        35.1601657821       26.6305678445        7.2890072918
  C        35.1799357668       26.6489556668        4.4789909004
  C        26.5657412488       17.8195291689        2.3341667809
  C        25.2542601450       17.8642835330        3.0395420259
  C        24.9949768828       18.8591160715        3.9941039499
  C        23.7755836779       18.8833743199        4.6636770185
  C        22.7886313754       17.9118896839        4.4030770934
  C        23.0430052940       16.9417815860        3.4168603885
  C        24.2626577240       16.9157689842        2.7446333962
  C        21.5239899526       17.8925736871        5.1717164951
  C        21.5441306595       17.8786864592        6.5926820756
  C        22.7598447487       17.7527276303        7.3375382235
  C        14.0445620705       17.8297990382        2.2904727218
  C        15.3507604722       17.8886859966        3.0105928816
  C        15.6123929082       18.8982106733        3.9494186702
  C        16.8228137441       18.9186451373        4.6390838168
  C        17.8026471315       17.9320158651        4.4104033047
  C        17.5465729297       16.9473618315        3.4381589466
  C        16.3357473465       16.9226352466        2.7501151766
  C        19.0695302309       17.9104481100        5.1802660400
  C        19.0631695738       17.9049857394        6.6021058829
  C        17.8527603674       17.8117199987        7.3587343870
  C        46.8051544329       17.2181289982        2.1635959066
  C        45.5167682945       17.1565467934        2.9076013351
  C        45.3175302698       16.1912211632        3.9070097689
  C        44.1372316647       16.1770711418        4.6442975214
  C        43.1247055806       17.1267699695        4.4031856645
  C        43.3208780532       18.0694369246        3.3752198927
  C        44.5025229777       18.0889326436        2.6400917009
  C        41.8735842050       17.1422503475        5.1911512980
  C        41.8786564522       17.1421041813        6.6149386286
  C        43.0847670163       17.2433706834        7.3738554037
  C        20.3075372444       17.9094137610        7.3135826309
  C        20.2945081369       17.8877346456        4.5010804077
  C        46.7844878919       17.2310960066       13.8843087059
  C        45.4818754396       17.1268416049       13.1718212700
  C        45.2668179858       16.1419184283       12.1953270719
  C        44.0792696024       16.1220776515       11.4691546605
  C        43.0751189988       17.0827442335       11.7022119422
  C        43.2799337893       18.0343798793       12.7194601697
  C        44.4691901416       18.0620592569       13.4397132463
  C        41.8312295999       17.1133099899       10.9049990443
  C        41.8568973273       17.1262241601        9.4818625978
  C        43.0743239763       17.2331024760        8.7419531823
  C        46.1531820049       26.6372572983        8.7210541750
  C        46.1618163514       26.6559135753       11.5306668220
  C        14.0404552699       17.8282753429       13.7013688751
  C        15.3563932066       17.8967571069       13.0021851048
  C        15.6304800602       18.9200570162       12.0829066278
  C        16.8559853569       18.9559037414       11.4220559761
  C        17.8322486219       17.9676441410       11.6568585452
  C        17.5637630770       16.9699687878       12.6109940438
  C        16.3403760381       16.9337073523       13.2752703558
  C        19.0991543911       17.9454003470       10.8893531884
  C        19.0786758622       17.9227839110        9.4684130657
  C        17.8602873575       17.8197850849        8.7248500363
  C        28.8052584687       14.0832222976        2.3660767514
  C        28.2056375457       12.9098678318        3.0612729161
  C        28.9360307738       12.1792799447        4.0105868324
  C        28.3444198593       11.1033679667        4.6682875582
  C        27.0100626576       10.7345174764        4.4014574002
  C        26.3024291005       11.4465399908        3.4158853029
  C        26.8904553154       12.5226681149        2.7568106104
  C        26.3464150781        9.6529697719        5.1654932896
  C        26.3369354615        9.6777257073        6.5866273538
  C        26.8449669553       10.7885390623        7.3323554273
  C        32.1777431354       21.2372590932        2.1496058777
  C        32.7707652193       22.4027182620        2.8632401717
  C        32.0329823891       23.0649403686        3.8572844854
  C        32.6055014590       24.1034343086        4.5835115186
  C        33.9324552728       24.5089592645        4.3392454574
  C        34.6508990068       23.8661292439        3.3125177315
  C        34.0813171500       22.8220996233        2.5873675720
  C        34.5654369932       25.5796430834        5.1390788287
  C        34.5625206881       25.5483211951        6.5627767387
  C        34.0580250152       24.4336724997        7.3015488674
  C        25.7239459677        8.6015725493        7.3057551225
  C        25.7062375325        8.6036155633        4.4926332113
  C        32.1191438969       21.2333891918       13.8830812222
  C        32.7172157358       22.3749376918       13.1391879598
  C        31.9810648711       23.0614378690       12.1587521733
  C        32.5733592840       24.0777407608       11.4148889907
  C        33.9147425530       24.4495411899       11.6389535596
  C        34.6316336424       23.7829376488       12.6520897184
  C        34.0468554211       22.7542337898       13.3850439782
  C        34.5592517468       25.5245130275       10.8537153499
  C        34.5568473725       25.5217622515        9.4299953930
  C        34.0532286372       24.4219821788        8.6699748097
  C        40.6195895569       17.1235506196        8.7577138292
  C        40.6005355284       17.1449983095       11.5688800821
  C        28.7422074649       14.0689436265       13.8156855086
  C        28.1387603137       12.9217308195       13.0735517589
  C        28.8877820429       12.2171276844       12.1172983239
  C        28.3137041160       11.1592404951       11.4151340956
  C        26.9762037910       10.7770695674       11.6467423705
  C        26.2454643139       11.4694572823       12.6302740533
  C        26.8167085682       12.5291803216       13.3325093703
  C        26.3403990441        9.6819070332       10.8747807538
  C        26.3354969366        9.6922358653        9.4532331523
  C        26.8420911428       10.7962637687        8.6980347393
  C        18.1353123621        3.1806506600        2.3220352483
  C        17.4057197841        4.2779514790        3.0206038437
  C        16.3908204872        3.9993478312        3.9489103716
  C        15.7429783801        5.0391686744        4.6125700977
  C        16.0938789007        6.3830076178        4.3721453205
  C        17.0822475229        6.6527455587        3.4073953119
  C        17.7314589510        5.6155473483        2.7422195960
  C        15.4696066065        7.4906885759        5.1352263669
  C        15.4853976181        7.4903523642        6.5569357880
  C        16.1871999521        6.4969358262        7.3101426832
  C        42.9459907049       31.8593966163        2.0780044059
  C        43.6463055186       30.7718292232        2.8219853508
  C        44.5923132139       31.0930406915        3.8076299880
  C        45.1978755298       30.0874055061        4.5552602605
  C        44.8708430055       28.7344314103        4.3407519106
  C        43.9444277497       28.4202253725        3.3280651038
  C        43.3356868265       29.4254375215        2.5800919495
  C        45.4883743203       27.6551277826        5.1439395828
  C        45.4927134711       27.6809042765        6.5656077280
  C        44.8055859311       28.6889609629        7.3121785879
  C        14.8564596735        8.5628777688        7.2692838573
  C        14.8738411129        8.5621895335        4.4566413450
  C        42.9463568472       31.9612956614       13.8039645966
  C        43.6914639378       30.8853066322       13.0903029516
  C        44.6562562969       31.1912134825       12.1182030553
  C        45.2776988135       30.1716305130       11.4004394381
  C        44.9536396323       28.8213373959       11.6378292290
  C        44.0198529978       28.5236770733       12.6483160109
  C        43.3916430191       29.5404323194       13.3605176219
  C        45.5627040928       27.7239843829       10.8525918022
  C        45.5331721353       27.7173998486        9.4313089704
  C        44.8268329082       28.7076175875        8.6783566766
  C        35.1589502905       26.6157905738        8.7241556362
  C        35.1810112664       26.5770652304       11.5356442223
  C        18.1484808037        3.2466229141       13.7017511201
  C        17.4296738072        4.3436017809       12.9925125175
  C        16.4151012232        4.0522145883       12.0683115746
  C        15.7667541942        5.0827685266       11.3927978380
  C        16.1206770220        6.4280972104       11.6160928614
  C        17.1112379276        6.7115748397       12.5741756453
  C        17.7589525632        5.6827299967       13.2540301256
  C        15.4902868326        7.5238167149       10.8435896864
  C        15.4965523943        7.5074064973        9.4224474097
  C        16.1934736419        6.5058175017        8.6757456609
  H        10.6726299549       12.4671376830       11.8979617787
  H        11.6946408134       10.5522154150       10.6560174579
  H        15.3900991873       11.1660756716       12.7693335754
  H        14.3495482521       13.0689603577       14.0147622661
  H        13.3761653947       11.6310684027        9.1960860090
  H        50.3226440671       22.7493158441       11.9826493161
  H        49.3192659365       24.6235868446       10.6763435101
  H        45.6410051922       24.1598588072       12.8573281535
  H        46.6619702735       22.2890173775       14.1656230857
  H        47.6292553425       23.5757529641        9.2410821625
  H        14.8708282895        8.5874875879       12.6034127675
  H        50.2870835692       22.7033691751        4.0647788197
  H        49.2688477669       24.5761505136        5.3649380904
  H        45.6094632213       24.1076756795        3.1523741066
  H        46.6516823716       22.2523702754        1.8382455508
  H        47.6072473537       23.5516698605        6.8019435955
  H        40.6567392506       17.1283897709        3.4243228037
  H        48.6865699611       14.0949396843       15.7947797903
  H        10.6812681214       12.4676293672        4.0994134597
  H        11.6890931574       10.5255313427        5.3032392495
  H        15.3917357472       11.1560690866        3.2084809634
  H        14.3634007414       13.0847449413        1.9930603954
  H        13.3755730094       11.6218635557        6.7580792315
  H        47.9298935878       14.2186604692        1.7156706616
  H        47.7800280915       14.3739932079       14.4894499296
  H        49.0817555354       18.5517877278        2.8719544301
  H        10.4149120802       14.1342955369        0.0037146287
  H        24.4896040003        3.0245984583       11.9160344609
  H        25.6377908018        4.8781097918       10.6899737077
  H        23.2605747869        7.7539681877       12.8298075041
  H        22.1310314232        5.8902136195       14.0576410453
  H        23.8326101662        5.7867787592        9.2547631440
  H        36.3897444798       32.1709119329       11.9445210077
  H        35.2892373178       30.3348602565       10.6612709354
  H        37.5520638467       27.4330178365       12.8890592317
  H        38.6336631216       29.2813547104       14.1795086448
  H        37.0579261560       29.4303057686        9.2549580077
  H        25.7551486684        8.6072539947       12.6408069624
  H        36.4721361781       32.2387365913        4.1320637745
  H        35.3642376050       30.4179195509        5.4252261335
  H        37.4981823003       27.4860981918        3.1096890600
  H        38.5831329630       29.3186736514        1.8064319845
  H        37.0599925754       29.4554697788        6.8170928589
  H        46.1084640120       26.5870567352        3.3906497945
  H        44.6679008814       35.1158199410       15.8088941881
  H        24.4443828201        3.0337014099        4.0826904569
  H        25.5867882534        4.8678885313        5.3310465273
  H        23.1857843777        7.7663084079        3.2495774684
  H        22.0557676618        5.9196494339        2.0007075131
  H        23.8134863642        5.7869095733        6.8160713225
  H        44.9526824777       34.3894124349        1.6996649599
  H        44.9004942373       34.2063295116       14.4854485774
  H        40.6639329312       33.2076144424        2.8575134616
  H        23.1510167999        1.9568384049        0.0099454337
  H        25.8021786328       19.6168268794       11.9097068589
  H        23.6320584175       19.6754459621       10.6619754812
  H        22.3006964595       16.2137773182       12.8387345721
  H        24.4700667662       16.1731545881       14.0818936255
  H        23.7042062198       17.6351005532        9.2377057449
  H        35.1344737185       15.4865779093       11.9343312092
  H        37.2588956555       15.4447331373       10.6411497702
  H        38.7054025127       18.7954841183       12.9192596871
  H        36.5712684190       18.8222774461       14.2202414713
  H        37.2283948088       17.3994069756        9.2365568195
  H        20.3319069139       17.9693513563       12.6478265295
  H        35.2075368508       15.4395389445        4.0550934088
  H        37.3396251142       15.3896585394        5.3599885820
  H        38.7345518959       18.8324353822        3.1923099651
  H        36.5969891045       18.8694143784        1.8913999956
  H        37.2477385014       17.3928341284        6.7930465919
  H        35.1467953820       26.6768215280        3.3914529904
  H        28.5068995552       21.0822305072       15.9870326443
  H        25.7608223508       19.6045943475        4.1944819216
  H        23.5719188700       19.6588630589        5.3988698196
  H        22.2880471368       16.1858240893        3.2107238171
  H        24.4764236487       16.1558767109        1.9967838614
  H        23.6915343379       17.6179341239        6.7960049916
  H        29.0096132385       21.7154202162        1.7675686079
  H        29.1491036989       21.7467705057       14.6164734997
  H        32.1266784610       18.5743107487        2.9768621019
  H        27.3418270496       19.0572303297        0.0973210764
  H        14.8565059742       19.6607064818        4.1235899801
  H        17.0240583154       19.7060953743        5.3622260171
  H        18.2944021641       16.1786210096        3.2545485273
  H        16.1232376349       16.1498458019        2.0152576902
  H        16.9116407596       17.7022482835        6.8277485285
  H        46.1052032377       15.4664379463        4.0987920805
  H        43.9833927687       15.4214860633        5.4114490312
  H        42.5475817882       18.8106611015        3.1846883414
  H        44.6709448952       18.8324036187        1.8645893027
  H        44.0265585735       17.3625667893        6.8460830854
  H        20.2911188299       17.9208407184        3.4130413754
  H        46.0464200355       15.4072423057       12.0072956389
  H        43.9159008583       15.3586909032       10.7116703868
  H        42.5105836288       18.7805281271       12.9066170749
  H        44.6489437592       18.8178767503       14.2002197379
  H        44.0083407562       17.3431231787        9.2851022349
  H        46.1983619978       26.6822975692       12.6181165235
  H        52.7407431059       21.0623833589        0.1996666133
  H        14.8736729815       19.6806968829       11.9043160740
  H        17.0702816582       19.7522517800       10.7125156262
  H        18.3100764087       16.2001444399       12.7960363913
  H        16.1156826674       16.1527600182       13.9976567751
  H        16.9248926250       17.7164443323        9.2666872100
  H        52.3207912006       21.6729798542       14.2900124556
  H        52.0121225313       21.7013429942        1.5005071062
  H        49.0657395716       18.6074805482       13.1998999593
  H        13.2469448174       19.0167850981       15.9711128308
  H        29.9635488476       12.4677893686        4.2216396567
  H        28.9129965503       10.5355612686        5.4016607828
  H        25.2715205167       11.1717954356        3.2022402396
  H        26.3410201333       13.0935034595        2.0122022158
  H        27.2113115659       11.6556306067        6.7910639811
  H        31.0158108099       22.7373043422        4.0567028410
  H        32.0286938489       24.6162958838        5.3498736234
  H        35.6775198485       24.1694464443        3.1177142537
  H        34.6436395366       22.3002647135        1.8164624578
  H        33.6981332459       23.5651736521        6.7573668159
  H        25.7335632923        8.5851153956        3.4045315606
  H        30.9411432383       22.7878185601       11.9944057608
  H        31.9975964869       24.6098716083       10.6607043103
  H        35.6683219804       24.0596898292       12.8325250700
  H        34.6080712954       22.2159842424       14.1453610190
  H        33.6911764505       23.5439712688        9.1975685515
  H        40.5936169530       17.1087206105       12.6566167179
  H        32.5234585602       14.1500228852        0.2709868562
  H        29.9248698722       12.5046177804       11.9530584760
  H        28.9024434554       10.6062334987       10.6860767147
  H        25.2111557540       11.1868171555       12.8156289762
  H        26.2488623870       13.0785146640       14.0798854995
  H        27.2041630202       11.6697581194        9.2320825122
  H        33.2931942970       14.1796666679       14.4196972198
  H        33.4089004667       14.3947899501        1.6226702109
  H        32.1354654705       18.5588494920       13.1603371499
  H        30.2262905132       14.1936978022        0.0823046122
  H        16.1195710275        2.9627227506        4.1358525281
  H        14.9541511297        4.8195255657        5.3288372821
  H        17.3636247467        7.6857610973        3.2134911402
  H        18.5126183682        5.8182568937        2.0134421094
  H        16.7536945888        5.7395422414        6.7766544743
  H        44.8289851536       32.1400706098        3.9815374218
  H        45.9380085877       30.3409567795        5.3109993752
  H        43.6810404627       27.3782606096        3.1584425617
  H        42.5983782414       29.1902506316        1.8160606048
  H        44.2300684120       29.4365710871        6.7738354891
  H        14.8494411947        8.5449960131        3.3684414368
  H        44.8999394105       32.2338851570       11.9269283070
  H        46.0246805092       30.4127611883       10.6472588230
  H        43.7625077053       27.4839922370       12.8395610222
  H        42.6448024228       29.3176765759       14.1186308310
  H        44.2680996759       29.4703646172        9.2128937356
  H        35.1503994418       26.5845500125       12.6236115991
  H        36.6048650249       35.1335944290        0.1860814200
  H        16.1445954331        3.0125503038       11.8981572865
  H        14.9749295132        4.8557391796       10.6822099979
  H        17.3939271764        7.7471522708       12.7517330571
  H        18.5410982550        5.8931781172       13.9795831650
  H        16.7648671050        5.7555674468        9.2142146211
  H        36.2792369824       34.4812582977       14.2685098523
  H        36.3822733669       34.2086663300        1.5055074906
  H        40.5795134102       33.2017943718       13.1490189391
  H        17.4709719304        1.9467962243       15.9689438964
  H        28.7141388157       18.9416935869        4.3315486149
  H        30.3364056093       20.0689993528       12.0557676685
  H        32.3425384380       16.2473106064       11.8287357371
  H        30.8724693800       15.4211880857        4.3493369025
  H        28.0484498844       17.3205619565        6.7126573535
  H        29.1975491713       15.1847642867        6.6081595580
  H        30.6229615505       20.9784401853        9.3429324616
  H        32.1862642210       17.2776767006       10.0552484429
  H        29.0765751214       16.9791461874        9.3650196162
  H        18.8534229324        0.8691351132        4.3401900799
  H        40.5277360830       35.2292941723       11.9471733049
  H        42.3226220690       34.4174261616       11.5865743852
  H        22.0880207838        0.6919163658        4.3565711402
  H        11.5969759891       18.7130693076        4.3873704511
  H        52.2644408372       18.4308576923       11.6723661341
  H        49.2546337088       16.4782302203       11.5802405131
  H        10.1505517537       15.7982728323        4.2976575621
  H        50.8493777850       17.6922839624       11.9493252199
  H        10.0458585911       17.3944539312        4.0571538066
  H        20.2141868518        0.0019932880        4.0472953031
  H        39.1834138379       36.1244733806       11.6816609800
 Ni        30.3533670350       17.6697214602       11.3258662988
 Ni        31.1576012960       16.1329751217        8.0778254261
 Ni        29.8864199531       18.8721116805        7.7467395608
 Ni        30.0563058522       17.3518755180        5.3287996269
  O        10.6497797580       14.3650486687       13.4805803205
  O        12.6130093705       14.6574210960       14.5787186057
  O        49.1480469783       16.8460089030       15.9846650356
  O        50.3500649312       20.9364654513       13.6432340122
  O        48.3485155904       20.5934655451       14.6609277727
  O        11.0508203856       17.0541675640       14.4953145976
  O        50.3209033531       20.8817578829        2.4118743533
  O        48.3468039561       20.5868013602        1.3321954364
  O        49.5434566323       18.2486547242        2.0734807004
  O        12.3588005981       18.6245927089        0.0047508028
  O        48.6930903691       14.1485328396       14.7461022048
  O         8.2097709252       14.2101956892        1.3276208297
  O        10.7353014888       14.5066382293        2.6695242527
  O        12.5716991840       14.5826451177        1.3335811552
  O        22.8450105485        2.0433585130       13.4816347528
  O        21.6067580571        3.5933223895       14.5833134464
  O        42.0580001388       34.1370977523       15.9739573147
  O        37.9820986628       33.1365810771       13.5672368826
  O        39.2196854587       31.5769230905       14.6629737939
  O        20.3082496360        1.0395027591       14.4968567557
  O        38.0246646208       33.1862948037        2.4199266325
  O        39.2194749937       31.5842488467        1.3309195098
  O        40.6523870266       33.7692603826        2.0655108488
  O        18.2559436704        1.3760456486        0.0018736381
  O        44.6222425558       35.1005058175       14.7536098751
  O        24.2053872483        0.0000260977        1.3259633875
  O        22.7534223546        2.0577130729        2.5890307266
  O        21.6251859770        3.5969880125        1.3488505538
  O        27.4654456339       18.6908251912       13.4860368454
  O        26.6974890607       16.9128245098       14.6692680990
  O        30.6334850127       19.3505002074        0.0682612235
  O        33.5409358261       16.3410738647       13.5789574301
  O        34.2663950493       18.1703004689       14.7279783980
  O        29.5635976404       17.0635826171       14.5672028578
  O        33.6089104019       16.3316026335        2.4195127554
  O        34.3007123230       18.2474247151        1.4091521820
  O        31.6492826470       18.3115881677        2.1729849899
  O        30.3241313681       15.1601482577        0.0881485973
  O        28.5504816195       21.0342888775       14.9048622270
  O        28.5128773191       20.9574886518        1.4143541353
  O        27.4538114065       18.6758944960        2.6665445403
  O        26.6920873628       16.9271130299        1.4217206375
  O        13.1478890100       18.6933754140        2.5918727960
  O        13.9182085840       16.9157101959        1.4088000471
  O        50.5956034050       19.3503687031        0.0257694292
  O        47.6844968088       16.3267103389        2.4221490167
  O        46.9523558676       18.1757275628        1.3294352910
  O        11.0689050405       17.0158476912        1.4949149943
  O        47.6759015843       16.3354493148       13.6479339573
  O        46.9283161016       18.2357764017       14.6601291301
  O        49.5687751617       18.3179750331       13.9771098468
  O        10.3184477315       15.1002274105        0.0020536112
  O        52.6706455938       21.0279755441        1.2469437627
  O        12.1468127287       20.8913555605       14.6680724872
  O        13.1063189905       18.6142290883       13.3207691270
  O        13.9556215430       16.9863771645       14.6601950253
  O        29.9975893038       14.4334861187        2.6708127923
  O        28.0767469735       14.6568856321        1.4892030636
  O        32.1362980443       16.8549521029        0.0754096808
  O        30.9626272116       20.9450029102        2.4165052462
  O        32.9427386771       20.5973265931        1.3411269388
  O        29.5653401857       17.0754548617        1.5801367816
  O        30.8811903945       20.9564335464       13.6606494664
  O        32.8794361685       20.5790093507       14.6656301618
  O        31.6077961025       18.2504019524       13.9157259399
  O        28.2328517159       18.6725152856        0.0834001809
  O        32.4942739977       14.2132713788        1.3372350740
  O        32.4070830071       14.2175652861       14.8166202524
  O        29.9147978170       14.4409506226       13.4847627586
  O        28.0360162730       14.5902462723       14.7476082582
  O        17.8892060744        1.9666003020        2.6679109849
  O        18.9563518868        3.5271382679        1.4130570848
  O        39.1686463658       34.1388758810        0.0023527485
  O        43.2802827688       33.0590249727        2.3367557260
  O        42.0348033526       31.5064440607        1.2467308733
  O        20.3175835059        1.0365919701        1.4853858178
  O        43.2759863708       33.1824772284       13.5698169710
  O        42.0052929471       31.5840645129       14.5779352086
  O        40.5792167348       33.7750186059       13.9307579703
  O        22.3672004737        1.3846319265        0.0030209631
  O        36.6726879154       35.0997123120        1.2385282703
  O        16.4454169961        0.0639636576       14.6630376644
  O        17.9363479454        2.0432894329       13.3213486596
  O        18.9192659721        3.5930979773       14.6608269422
  O        29.6897381325       19.3353965433       12.0751513068
  O        29.6607152896       18.9860218342        4.0776742527
  O        31.3879092518       16.1154786215       11.9896010837
  O        31.3042800416       16.2561205065        4.0715077088
  O        32.7776864800       16.8011721770        9.4101108585
  O        29.9380972298       17.4323314025        9.3306485069
  O        30.0268087857       15.6734838285        6.5032357352
  O        31.3907186979       17.8768545435        6.9156300630
  O        30.9714666343       20.0717911293        9.3194301960
  O        28.4315022884       18.1627723973        6.4148130946
  O        39.4567580078       35.2438351571       11.9969028827
  O        19.1411802148        0.0045346597        3.9957505920
  O        41.9697669491       35.1727122024       12.0821815890
  O        21.6913881386       -0.0693737281        3.9010043131
  O        51.3647086312       18.6142725897       12.0003108984
  O        10.7510746547       18.7473782832        3.9101112468
  O        50.0796574451       16.4128602055       12.0864870845
  O         9.5245248734       16.4830354522        3.9964053776
 Zr         9.2945073255       16.0530109877       14.1770768470
 Zr        49.8344510036       16.0068346370        1.7517355168
 Zr        22.0725249375        0.0284790065       14.1844674808
 Zr        42.4602849282       35.1521514017        1.8058004728
 Zr        29.5425675215       19.1071854233       14.2850246904
 Zr        29.5653141732       19.1675868953        1.8895630988
 Zr        11.0361974106       19.0522930523        1.8324635807
 Zr        11.0419952179       19.1551594573       14.2465979726
 Zr        31.3527120484       16.0983439290        1.9044998401
 Zr        31.3788232441       15.9955839763       14.2783136455
 Zr        18.6004198103       -0.0031167921        1.7686960405
 Zr        18.5058065268       -0.0095338012       14.2086182381
 Zr        12.2989116257       16.3234908825       15.9851636324
 Zr        48.6140580615       18.8325487163        0.0153161421
 Zr        20.3148133322        2.4719028015       15.9855136272
 Zr        40.6420513622       32.6852993930       15.9736521102
 Zr        28.3336694780       16.3430475179        0.0858734446
 Zr        32.6104782307       18.8288107065        0.0637798955
  H        32.1633619186       18.4499779599        6.7812219235
  O        30.9646106007       14.6518961198        9.6576408582
  H        31.0349111436       15.0797840674       10.5617981477
  H        30.1813205770       14.0808161673        9.6969185589
  O        32.7424014350       15.2422723190        6.5813725263
  H        33.6530567007       15.5724758198        6.6363488322
  H        32.3730880365       15.6517771821        5.7626768299
  O        28.0432804998       20.0040272946        8.1655406798
  H        27.7834483298       19.3452469747        7.4411713463
  H        27.5883022788       19.7261724409        8.9786406807
  O        30.2453079873       20.4457076224        6.3161426147
  H        30.1109251909       20.0072580191        5.4146374570
  H        29.5136645144       21.0811725615        6.3911449412
  H        33.1837746081       17.5315702307        8.9098618516
  H        30.5777903559       19.6104794427       10.0996456248
