     586
 i =      360, E =     -4847.8162639718
  C        11.8583557186       14.0533909595       13.7364879137
  C        12.4557180479       12.8902464398       13.0184023662
  C        11.7043402757       12.1721057973       12.0758843241
  C        12.2806584440       11.1098899640       11.3834885984
  C        13.6208941205       10.7392543273       11.6119410226
  C        14.3535872989       11.4418470166       12.5865124653
  C        13.7807583700       12.5067854362       13.2781104075
  C        14.2605241745        9.6487348616       10.8384460780
  C        14.2558343824        9.6567195463        9.4167309333
  C        13.7425163106       10.7587296345        8.6627554609
  C        49.1263976209       21.2334359878       13.8746943812
  C        48.5495824447       22.4011176010       13.1475543703
  C        49.2995744106       23.0684651379       12.1665187984
  C        48.7325478355       24.1074704951       11.4332623907
  C        47.4019701559       24.5090303641       11.6618868123
  C        46.6710338733       23.8600945838       12.6753740472
  C        47.2335583823       22.8152820053       13.4047815407
  C        46.7717869488       25.5867013122       10.8645888329
  C        46.7609256903       25.5570958073        9.4428377938
  C        47.2606823011       24.4419045479        8.6993699792
  C        14.8598991303        8.5704662377        8.7034269268
  C        14.8913988209        8.5967753282       11.5150371445
  C        49.1128477005       21.2035331930        2.1504985851
  C        48.5274584743       22.3646932836        2.8776328532
  C        49.2666842823       23.0255839588        3.8704610527
  C        48.6902318985       24.0600364884        4.6019128582
  C        47.3597155349       24.4565653163        4.3637653105
  C        46.6392701256       23.8114278631        3.3404157287
  C        47.2129218029       22.7755863510        2.6086402997
  C        46.7212998848       25.5315323969        5.1547612841
  C        46.7331617588       25.5279046383        6.5764455926
  C        47.2484192856       24.4286022561        7.3328178044
  C        40.6209105853       17.1332363363        7.3145702996
  C        40.6263674485       17.1258021056        4.5047199703
  C        11.8825584768       14.0863092133        2.2904765339
  C        12.4714734435       12.9100770158        2.9943135117
  C        11.7141812153       12.1778979778        3.9214245495
  C        12.2804859764       11.0953269862        4.5898907207
  C        13.6188319062       10.7204138560        4.3571716101
  C        14.3563537446       11.4346598752        3.3949980050
  C        13.7912116017       12.5159258416        2.7222548854
  C        14.2525007095        9.6238618102        5.1277504940
  C        14.2515762828        9.6441207766        6.5496018297
  C        13.7417631042       10.7530837328        7.2967035646
  C        22.5064572819        3.2431180166       13.7434282016
  C        23.2094259417        4.3468868589       13.0317321146
  C        24.2074000679        4.0653960052       12.0872418362
  C        24.8274101943        5.1035830551       11.3972391836
  C        24.4638718133        6.4442372359       11.6319855021
  C        23.4909823901        6.7174755948       12.6105146484
  C        22.8670589307        5.6812704405       13.2995336570
  C        25.0693835363        7.5503711218       10.8571910274
  C        25.0546643919        7.5419567812        9.4361883351
  C        24.3633824287        6.5391560883        8.6852685055
  C        38.3061941052       31.9264884510       13.8406264832
  C        37.5877179060       30.8319225943       13.1260173727
  C        36.6307026773       31.1262285279       12.1428655071
  C        36.0256621674       30.0996596437       11.4224369403
  C        36.3623871286       28.7526909459       11.6625746239
  C        37.2904623068       28.4659833397       12.6814608470
  C        37.8994369981       29.4910484397       13.4007727407
  C        35.7682691986       27.6555162233       10.8652816476
  C        35.7923186121       27.6729313649        9.4436734764
  C        36.4924034887       28.6785427188        8.7052613222
  C        25.6808378533        8.6137232444        8.7221496714
  C        25.6572000842        8.6267683476       11.5323430208
  C        38.3283090713       31.9619001943        2.1593956622
  C        37.6069925459       30.8861808585        2.8966617473
  C        36.6804244102       31.1895027430        3.9057252488
  C        36.0743561865       30.1666134813        4.6322952339
  C        36.3811163239       28.8158432810        4.3728751439
  C        37.2836153428       28.5226373549        3.3324956277
  C        37.8917640571       29.5418107902        2.6072247524
  C        35.7805895104       27.7126251328        5.1560070847
  C        35.7985484761       27.7021820123        6.5774861359
  C        36.4955342883       28.6922319526        7.3389407586
  C        46.1353192964       26.6206266183        7.2865585032
  C        46.0873198782       26.5798453505        4.4786738039
  C        22.4642784314        3.2540139113        2.2573686687
  C        23.1682656909        4.3610101455        2.9703391399
  C        24.1774658429        4.0719950858        3.9023704395
  C        24.8132007348        5.1009870775        4.5920531379
  C        24.4583374621        6.4464854507        4.3715820340
  C        23.4741152721        6.7289595599        3.4061262594
  C        22.8341737728        5.7003036351        2.7162742881
  C        25.0874485568        7.5423812789        5.1482155379
  C        25.0648699361        7.5368334713        6.5700505419
  C        24.3656441408        6.5382873242        7.3189973603
  C        26.5713549980       17.8273854507       13.7829956256
  C        25.2695252559       17.8882291979       13.0499893481
  C        25.0065685142       18.9226276732       12.1387771192
  C        23.7976078194       18.9592951787       11.4466049207
  C        22.8199205308       17.9641668854       11.6462184675
  C        23.0797729716       16.9502155833       12.5862245509
  C        24.2895478798       16.9098401174       13.2769660655
  C        21.5512923416       17.9662417869       10.8774942312
  C        21.5584367249       17.9646716068        9.4561945541
  C        22.7692104437       17.8589143931        8.7007317889
  C        34.4200616698       17.2319378693       13.8809184623
  C        35.7178621425       17.1874122237       13.1433911316
  C        35.9306858413       16.2171239616       12.1516323688
  C        37.1166746686       16.2036740601       11.4231714317
  C        38.1225820642       17.1590279854       11.6668924144
  C        37.9131185953       18.1093768621       12.6840701616
  C        36.7240751515       18.1277655536       13.4104294734
  C        39.3789851332       17.1651926804       10.8832205144
  C        39.3717521402       17.1768357283        9.4616319101
  C        38.1635151328       17.3085173568        8.7076678415
  C        20.3146026969       17.9809147638        8.7441758848
  C        20.3260446014       17.9554391047       11.5567641127
  C        34.4181662235       17.2128958708        2.2300102583
  C        35.7222120792       17.1340067013        2.9472962077
  C        35.9280280140       16.1772818526        3.9536398516
  C        37.1262544715       16.1590034358        4.6635212264
  C        38.1430387911       17.0957974765        4.3903109337
  C        37.9400290686       18.0245283720        3.3523624199
  C        36.7429135446       18.0476946965        2.6426904244
  C        39.3972745318       17.1231050535        5.1749272109
  C        39.3811894361       17.1567241484        6.5959908118
  C        38.1682023550       17.2974570128        7.3414234755
  C        35.1727981985       26.6205135422        7.2812314801
  C        35.1900601097       26.6426012251        4.4724264848
  C        26.5697471653       17.8203122518        2.3323067165
  C        25.2573083876       17.8733833953        3.0407197957
  C        24.9709661882       18.9211924524        3.9285594615
  C        23.7514756631       18.9570108281        4.5987043951
  C        22.7907674188       17.9458606115        4.4016601561
  C        23.0715496348       16.9198217807        3.4823735509
  C        24.2917627883       16.8821582032        2.8104823656
  C        21.5241458295       17.9425472814        5.1693179865
  C        21.5440620323       17.9510888164        6.5896665260
  C        22.7623681429       17.8523424071        7.3346097154
  C        14.0450391094       17.8318639381        2.2891683102
  C        15.3518144360       17.8973649082        3.0073660116
  C        15.6108985946       18.9147930210        3.9384117020
  C        16.8213950097       18.9441076079        4.6271842921
  C        17.8039264442       17.9585722307        4.4057041979
  C        17.5505099826       16.9657056763        3.4411515612
  C        16.3394608851       16.9323503895        2.7535261285
  C        19.0704876635       17.9487540664        5.1760291268
  C        19.0632787866       17.9549514260        6.5977686240
  C        17.8528995513       17.8560982723        7.3539360983
  C        46.8011982321       17.2167885484        2.1619830649
  C        45.5069842823       17.1497676320        2.9009400253
  C        45.2989863366       16.1710571568        3.8854210100
  C        44.1142834144       16.1495267838        4.6170625410
  C        43.1062386042       17.1064167460        4.3871176830
  C        43.3102344408       18.0625386613        3.3736188272
  C        44.4958441577       18.0883117828        2.6430434464
  C        41.8536940412       17.1201307391        5.1785525232
  C        41.8649963272       17.1334815637        6.6008852047
  C        43.0764122953       17.2292749724        7.3558259035
  C        20.3070125682       17.9731189165        7.3101877736
  C        20.2960450260       17.9223959573        4.4976154841
  C        46.7853888971       17.2334947058       13.8806972743
  C        45.4845711768       17.1347376784       13.1601860401
  C        45.2641504395       16.1412886223       12.1939760128
  C        44.0770548178       16.1215318178       11.4656787448
  C        43.0804849225       17.0924047956       11.6857819254
  C        43.2920052329       18.0563080071       12.6894386324
  C        44.4798255635       18.0824057020       13.4129858049
  C        41.8330787311       17.1208811763       10.8906282906
  C        41.8546309196       17.1323864624        9.4692827325
  C        43.0716078104       17.2255257855        8.7228317021
  C        46.1530787396       26.6370578023        8.7210887390
  C        46.1618401368       26.6558125343       11.5307275101
  C        14.0406724589       17.8298871303       13.7017392663
  C        15.3561059858       17.9038727892       13.0023200546
  C        15.6248954049       18.9313298560       12.0860091294
  C        16.8492865659       18.9746931512       11.4239043481
  C        17.8300388530       17.9896986022       11.6539222889
  C        17.5667676375       16.9875789428       12.6050202759
  C        16.3443920987       16.9440824137       13.2710128653
  C        19.0966496394       17.9783970916       10.8858495350
  C        19.0770912742       17.9701508746        9.4647109912
  C        17.8596764748       17.8631171286        8.7199559921
  C        28.8071690880       14.0839581299        2.3657693603
  C        28.2044993250       12.9092612805        3.0589165688
  C        28.9328183732       12.1784607328        4.0091306174
  C        28.3381243059       11.1047122560        4.6681627325
  C        27.0044944246       10.7374157989        4.3963789410
  C        26.2996761978       11.4484889505        3.4089470468
  C        26.8902498723       12.5237951514        2.7512539916
  C        26.3367485215        9.6554827466        5.1549163018
  C        26.3072159808        9.6846138066        6.5748635187
  C        26.7965124681       10.8018481174        7.3230158685
  C        32.1799146746       21.2255012655        2.1482003750
  C        32.7748964705       22.3965774813        2.8581558002
  C        32.0300060969       23.0851211355        3.8266753213
  C        32.6068599441       24.1225072514        4.5523306519
  C        33.9441565742       24.4997649017        4.3298012405
  C        34.6726499305       23.8324459936        3.3266071048
  C        34.0981415445       22.7892942708        2.6031320016
  C        34.5781735368       25.5712330061        5.1315542953
  C        34.5746930246       25.5397086116        6.5534112330
  C        34.0612200340       24.4259967565        7.2910813619
  C        25.6918915885        8.6067569574        7.2885205077
  C        25.7094079913        8.6026709223        4.4765174037
  C        32.1165934942       21.2209252299       13.8758637745
  C        32.7222136982       22.3565337108       13.1173775680
  C        31.9848335554       23.0483286740       12.1441530652
  C        32.5753535309       24.0703069693       11.4046961980
  C        33.9180066134       24.4353026139       11.6239474672
  C        34.6407499514       23.7572063349       12.6235343959
  C        34.0547050302       22.7268055712       13.3551193152
  C        34.5605171864       25.5173319718       10.8417267362
  C        34.5650003732       25.5130205311        9.4200344081
  C        34.0560590317       24.4142002657        8.6580999256
  C        40.6154111723       17.1382169878        8.7491320891
  C        40.6039083629       17.1538960140       11.5596762493
  C        28.6602252749       14.0618071033       13.8176609842
  C        28.0529812321       12.9184765830       13.0748059118
  C        28.7980058571       12.2396200215       12.0982529918
  C        28.2280599357       11.1830502065       11.3929459577
  C        26.8989840504       10.7831495942       11.6384609973
  C        26.1717152330       11.4514393203       12.6409283221
  C        26.7403313362       12.5075124922       13.3499022087
  C        26.2694602990        9.6917553788       10.8600260395
  C        26.2723826113        9.7046044861        9.4389054673
  C        26.7760392813       10.8131716083        8.6882608415
  C        18.1353715441        3.1808495565        2.3222301308
  C        17.4058055087        4.2780679570        3.0208820203
  C        16.3900191615        3.9995257355        3.9482331332
  C        15.7420881265        5.0393895041        4.6117500722
  C        16.0938786278        6.3831246084        4.3721276443
  C        17.0833523601        6.6528382587        3.4085374072
  C        17.7326553214        5.6156014469        2.7435058915
  C        15.4693836564        7.4907630738        5.1351480810
  C        15.4850061209        7.4903645990        6.5568571434
  C        16.1869154062        6.4969714486        7.3099871403
  C        42.9459010538       31.8594632568        2.0779993195
  C        43.6461861527       30.7717455715        2.8219888686
  C        44.5921848035       31.0929910915        3.8076229407
  C        45.1978085166       30.0873856021        4.5552756949
  C        44.8707982264       28.7344120071        4.3407858230
  C        43.9444368752       28.4201249041        3.3280646205
  C        43.3357205684       29.4253348521        2.5800327875
  C        45.4883509147       27.6550833816        5.1439549613
  C        45.4926924386       27.6807921732        6.5656372017
  C        44.8058193556       28.6890041726        7.3122283396
  C        14.8559355360        8.5628223148        7.2691915821
  C        14.8736726848        8.5622388198        4.4565258495
  C        42.9464530148       31.9614924759       13.8038246221
  C        43.6915581563       30.8853164462       13.0902507006
  C        44.6565626066       31.1911843316       12.1183599661
  C        45.2780166652       30.1715625582       11.4006201480
  C        44.9537239318       28.8213137420       11.6378740422
  C        44.0197390858       28.5236597214       12.6481763237
  C        43.3915671020       29.5404672722       13.3603704299
  C        45.5627602122       27.7238994853       10.8526515873
  C        45.5332031598       27.7172728011        9.4313596455
  C        44.8270883457       28.7076499244        8.6784086876
  C        35.1689894849       26.6065229631        8.7159348241
  C        35.1734802560       26.5738465182       11.5257689920
  C        18.1485234153        3.2467338214       13.7014561861
  C        17.4299392915        4.3436491393       12.9919595916
  C        16.4146622404        4.0524138119       12.0684934599
  C        15.7663241581        5.0830678831       11.3931101995
  C        16.1210580449        6.4282753500       11.6157981564
  C        17.1125887136        6.7116281332       12.5728886288
  C        17.7602690121        5.6826850641       13.2526221495
  C        15.4904621712        7.5240008754       10.8434239324
  C        15.4963936174        7.5074965105        9.4222825856
  C        16.1933082756        6.5058942153        8.6755911258
  H        10.6724626584       12.4667875708       11.8982660600
  H        11.6944933254       10.5519841929       10.6564035073
  H        15.3902177749       11.1663273431       12.7691311082
  H        14.3498065920       13.0690690398       14.0145862321
  H        13.3753498203       11.6308273054        9.1959965591
  H        50.3222891323       22.7484739463       11.9817806733
  H        49.3188952972       24.6227674647       10.6756051106
  H        45.6414788835       24.1607083295       12.8584609761
  H        46.6624678281       22.2899769892       14.1667744168
  H        47.6288517426       23.5753637935        9.2410441056
  H        14.8715944297        8.5878232810       12.6033401745
  H        50.2867842986       22.7028951460        4.0653099573
  H        49.2684969281       24.5756403950        5.3654061069
  H        45.6097351191       24.1083421521        3.1515447786
  H        46.6519562106       22.2531837117        1.8373450391
  H        47.6068374005       23.5513246523        6.8019380285
  H        40.6279502483       17.0784655463        3.4173615943
  H        48.6866803267       14.0948281394       15.7948218354
  H        10.6810676551       12.4678074610        4.0995612344
  H        11.6887706147       10.5257064058        5.3032740345
  H        15.3912736358       11.1555583947        3.2080298417
  H        14.3632020895       13.0841989457        1.9926015681
  H        13.3746277663       11.6215803796        6.7580926684
  H        47.9300447163       14.2171921441        1.7161234919
  H        47.7795929110       14.3715765093       14.4895630459
  H        49.0814573022       18.5517454565        2.8719179590
  H        10.4154469450       14.1343055290        0.0039186947
  H        24.4757896885        3.0270556807       11.9058093159
  H        25.6034924353        4.8864924235       10.6665082482
  H        23.2031027263        7.7501532533       12.7961161224
  H        22.0951049486        5.8813232719       14.0385354676
  H        23.8003565129        5.7807860134        9.2215327326
  H        36.3851080717       32.1671087493       11.9455393641
  H        35.2827296945       30.3323000314       10.6626978456
  H        37.5591033055       27.4295254069       12.8750470488
  H        38.6411703535       29.2765725865       14.1664496245
  H        37.0594008039       29.4276914686        9.2501696791
  H        25.6847471239        8.6092761503       12.6203141196
  H        36.4569795463       32.2325176566        4.1184160149
  H        35.3510392949       30.4062900261        5.4085494534
  H        37.5310730215       27.4836101079        3.1253630093
  H        38.6120372585       29.3211990096        1.8232911040
  H        37.0659710218       29.4516515164        6.8119846289
  H        46.1084762261       26.5871351748        3.3906328713
  H        44.6683222033       35.1162344608       15.8089762214
  H        24.4527051336        3.0329221534        4.0681372205
  H        25.5982140759        4.8721044883        5.3096440726
  H        23.1908644746        7.7643169109        3.2279947825
  H        22.0575290984        5.9134000391        1.9854391696
  H        23.8035166261        5.7799519235        6.7818730942
  H        44.9540054804       34.3902029423        1.6999968231
  H        44.9021781757       34.2069552894       14.4855621606
  H        40.6654607267       33.2085785926        2.8580003488
  H        23.1501821201        1.9579125215        0.0081177742
  H        25.7605386599       19.6944992347       11.9987007898
  H        23.5907659973       19.7679239607       10.7485794666
  H        22.3340909397       16.1738878279       12.7452122752
  H        24.5045761370       16.1169355471       13.9897026062
  H        23.7070930949       17.7464318946        9.2369285892
  H        35.1517142771       15.4821516032       11.9619604504
  H        37.2799608370       15.4434701332       10.6623253054
  H        38.6816771192       18.8552456520       12.8763398029
  H        36.5459371372       18.8751360686       14.1802384910
  H        37.2282088654       17.4471891683        9.2422498098
  H        20.3297046354       17.9781369275       12.6450652230
  H        35.1344209205       15.4673421865        4.1802404598
  H        37.2862334293       15.4129036297        5.4389476781
  H        38.7175326215       18.7543047160        3.1361396538
  H        36.5656967100       18.7817047791        1.8601553217
  H        37.2363770840       17.4287526123        6.7993613471
  H        35.1583139976       26.6706968634        3.3849002898
  H        28.4996390295       21.0690723398       15.9636599234
  H        25.7144355927       19.7025218302        4.0690052074
  H        23.5242452655       19.7733739375        5.2811067238
  H        22.3363865732       16.1327947285        3.3273060157
  H        24.5262741112       16.0815803682        2.1128005733
  H        23.6951223094       17.7358826666        6.7904805515
  H        29.0495589707       21.6951987553        1.7417214487
  H        29.2113357007       21.6963724058       14.6333144483
  H        32.0862356143       18.5157179547        2.9977825394
  H        27.3692594834       19.0127341270        0.0819810361
  H        14.8527478630       19.6762431259        4.1070702167
  H        17.0205949607       19.7375464221        5.3443303759
  H        18.3004819111       16.1977692695        3.2630160570
  H        16.1291288993       16.1534873063        2.0244385511
  H        16.9127299550       17.7404665192        6.8226177925
  H        46.0831990889       15.4410044849        4.0715834679
  H        43.9555478527       15.3835837877        5.3730250453
  H        42.5402751555       18.8090402754        3.1898667902
  H        44.6685456714       18.8421829752        1.8784914419
  H        44.0171234511       17.3359004222        6.8232613577
  H        20.2939538759       17.9375080300        3.4092018922
  H        46.0382029992       15.3982516673       12.0158728101
  H        43.9087130555       15.3496156739       10.7178919368
  H        42.5280397084       18.8105431965       12.8661815996
  H        44.6634561494       18.8454364844       14.1653530478
  H        44.0087786211       17.3282172536        9.2622643901
  H        46.1984625258       26.6822969551       12.6181827047
  H        52.7407554469       21.0624372763        0.1996797492
  H        14.8647104659       19.6894049235       11.9110427272
  H        17.0593996141       19.7747492791       10.7173120569
  H        18.3164835733       16.2203146706       12.7869247078
  H        16.1241844997       16.1599371360       13.9913716048
  H        16.9246222695       17.7526839677        9.2609554814
  H        52.3208937501       21.6730822457       14.2901271190
  H        52.0124291282       21.7016221513        1.5005459826
  H        49.0669188582       18.6080111030       13.1993712980
  H        13.2466952932       19.0170425336       15.9709060715
  H        29.9620627312       12.4667014868        4.2139501067
  H        28.9028041122       10.5357116393        5.4037535138
  H        25.2697549751       11.1725987651        3.1921067597
  H        26.3449825544       13.0947953088        2.0038125533
  H        27.1619450752       11.6697556207        6.7824720230
  H        31.0094138652       22.7705808799        4.0213145413
  H        32.0249962391       24.6510029013        5.3041193527
  H        35.7082367101       24.1150172945        3.1488152003
  H        34.6659747841       22.2472288408        1.8504823558
  H        33.6921113632       23.5622613390        6.7446972451
  H        25.7497347136        8.5820049202        3.3888861734
  H        30.9456122588       22.7746878962       11.9782123794
  H        31.9966139176       24.6079151803       10.6566918930
  H        35.6801221585       24.0276097384       12.7982989444
  H        34.6165458193       22.1817600889       14.1101572599
  H        33.6863952768       23.5398652854        9.1865099295
  H        40.5994734041       17.1165305621       12.6473850087
  H        32.5293466759       14.1547419624        0.2518171009
  H        29.8240030293       12.5536419377       11.9155037151
  H        28.8125525708       10.6478077106       10.6476632752
  H        25.1435749789       11.1530074124       12.8353393625
  H        26.1786739116       13.0395412568       14.1142279918
  H        27.1242559111       11.6903457649        9.2253887299
  H        33.2665397977       14.1312267109       14.3820203451
  H        33.4045030297       14.3659408342        1.6331384543
  H        31.9812603771       18.5193149862       13.1077383539
  H        30.1886701992       14.1443637111        0.0869043282
  H        16.1181267297        2.9629558971        4.1345295563
  H        14.9525877676        4.8198728214        5.3273175921
  H        17.3657033868        7.6857531349        3.2155381620
  H        18.5148005867        5.8182943387        2.0157807501
  H        16.7534996102        5.7396902664        6.7764238526
  H        44.8288735378       32.1400334233        3.9814982051
  H        45.9380216980       30.3410337907        5.3109162701
  H        43.6811578728       27.3781291908        3.1583856726
  H        42.5986438091       29.1900940765        1.8157830452
  H        44.2306006753       29.4368476976        6.7738819299
  H        14.8495790063        8.5451520438        3.3683172462
  H        44.9004778598       32.2338397944       11.9272415417
  H        46.0252435265       30.4127297413       10.6476809246
  H        43.7623065080       27.4839705195       12.8393401403
  H        42.6447076802       29.3177354946       14.1184813140
  H        44.2687085475       29.4706235778        9.2130043700
  H        35.1375377187       26.5815930556       12.6135635385
  H        36.6052420215       35.1337159841        0.1859442997
  H        16.1435586826        3.0128258231       11.8988333892
  H        14.9739231284        4.8562279216       10.6831019942
  H        17.3961879260        7.7470778007       12.7497169828
  H        18.5432006417        5.8930427251       13.9773548497
  H        16.7649059616        5.7557893946        9.2140524056
  H        36.2790859851       34.4815903541       14.2681006916
  H        36.3816870242       34.2088542712        1.5049979639
  H        40.5807601883       33.2030282585       13.1479339367
  H        17.4707010565        1.9472197900       15.9687761383
  H        28.7483047741       18.8624664860        4.3206575755
  H        30.0742933033       20.1924427968       12.0076071846
  H        32.3133169069       16.2236198154       11.7980294851
  H        31.9668364953       16.0225562184        4.5976422257
  H        28.4804205849       17.2279885869        6.9090924762
  H        29.8884706186       15.0900602100        6.6347543618
  H        30.8705986758       20.7224391753        9.0210891094
  H        32.7466150270       17.9311332985        9.5557974883
  H        28.5665309512       17.9175912412       10.9842715841
  H        18.8537258582        0.8688550028        4.3405033737
  H        40.5282607223       35.2289555398       11.9469702844
  H        42.3242340051       34.4193604528       11.5848355897
  H        22.0875972460        0.6920616394        4.3570221953
  H        11.5967799349       18.7127817709        4.3875632166
  H        52.2643480292       18.4307843603       11.6722832810
  H        49.2552462438       16.4763037093       11.5790707106
  H        10.1494052959       15.7980777959        4.2981220831
  H        50.8492819605       17.6924046685       11.9491284910
  H        10.0455535139       17.3944246923        4.0571612776
  H        20.2151008251        0.0020659436        4.0470576393
  H        39.1837013114       36.1243728633       11.6814448894
 Ni        30.9074995893       18.3226421566       10.9907207492
 Ni        31.1543959002       16.5772470594        8.3312235572
 Ni        29.7973730046       19.0198131873        7.6620874731
 Ni        30.0176564365       17.2251506657        5.2452978117
  O        10.6497551019       14.3652079941       13.4806947880
  O        12.6130519240       14.6575254479       14.5787271527
  O        49.1478229971       16.8459950940       15.9847148555
  O        50.3500961526       20.9362356181       13.6432122245
  O        48.3484933752       20.5932838594       14.6609168733
  O        11.0506973228       17.0541171479       14.4954764055
  O        50.3208553662       20.8817290145        2.4119196145
  O        48.3466940962       20.5867410148        1.3322001995
  O        49.5432444758       18.2484287846        2.0735530893
  O        12.3587007103       18.6244570890        0.0047714553
  O        48.6931981385       14.1486180281       14.7461731006
  O         8.2097645423       14.2104594783        1.3276858710
  O        10.7352454488       14.5068208255        2.6694635791
  O        12.5717007636       14.5828334770        1.3336217025
  O        22.8443279627        2.0424328168       13.4822758387
  O        21.6047705747        3.5919703557       14.5846415389
  O        42.0582437361       34.1374135046       15.9738677633
  O        37.9818512845       33.1344886009       13.5665049071
  O        39.2192044002       31.5760163921       14.6621890464
  O        20.3083749428        1.0396919762       14.4967098981
  O        38.0244247079       33.1853298253        2.4202274904
  O        39.2199592185       31.5844330265        1.3306557833
  O        40.6523051071       33.7693146426        2.0654112814
  O        18.2556062388        1.3763855772        0.0018149483
  O        44.6222309481       35.1005537148       14.7537109104
  O        24.2054995890       -0.0000956281        1.3258686205
  O        22.7529698068        2.0564774447        2.5879578734
  O        21.6239705391        3.5951624881        1.3464455690
  O        27.4666225485       18.6911255324       13.4808980869
  O        26.6895326062       16.9180705369       14.6670332883
  O        30.6289026899       19.3510039596        0.0728910901
  O        33.5528262191       16.3438065878       13.5857897160
  O        34.2686771369       18.1727621750       14.7359472599
  O        29.5218265521       17.0054238938       14.5009930656
  O        33.5343972514       16.3273747451        2.5018897784
  O        34.2661513960       18.1771289511        1.4097848484
  O        31.6453062912       18.3150891402        2.1562680602
  O        30.2883553119       15.1099755906        0.0789632271
  O        28.5531527660       21.0264940046       14.8963803102
  O        28.5152218216       20.9484814757        1.4201696118
  O        27.4574120941       18.6792161602        2.6655250392
  O        26.6907936852       16.9278638547        1.4234283969
  O        13.1469991262       18.6937902232        2.5914898368
  O        13.9184574250       16.9159690416        1.4094101054
  O        50.5955910319       19.3503133005        0.0258607653
  O        47.6815467004       16.3273862038        2.4225593362
  O        46.9508429914       18.1758068291        1.3301296440
  O        11.0688094503       17.0158678198        1.4947633766
  O        47.6751465715       16.3359452319       13.6473675210
  O        46.9273834055       18.2358579863       14.6593613277
  O        49.5686633563       18.3177812755       13.9771661487
  O        10.3185633081       15.1002168049        0.0021900291
  O        52.6706893271       21.0279963837        1.2469502680
  O        12.1468133163       20.8913421351       14.6681023587
  O        13.1053187850       18.6144098000       13.3209117569
  O        13.9564492967       16.9869023700       14.6596784016
  O        29.9949824859       14.4317523117        2.6685730958
  O        28.0686859327       14.6579709198        1.4929817686
  O        32.0701079239       16.8473841832        0.0791367476
  O        30.9610833275       20.9339635132        2.4195664879
  O        32.9423897368       20.5915307299        1.3382489084
  O        29.5602438288       17.0648179259        1.5754347745
  O        30.8768332346       20.9564816664       13.6646798334
  O        32.8768107870       20.5790300470       14.6657281767
  O        31.6091521961       18.2392434282       13.9772175212
  O        28.2570965335       18.6201648573        0.0817407258
  O        32.4913148225       14.2133295610        1.3309659469
  O        32.4054311057       14.2120909951       14.8235451714
  O        29.8284555833       14.4277995452       13.4852675639
  O        27.9532873984       14.5852788724       14.7510548441
  O        17.8891666669        1.9666039543        2.6679702000
  O        18.9561174910        3.5272171241        1.4131552526
  O        39.1686087518       34.1388228937        0.0022440973
  O        43.2802419527       33.0588704428        2.3368572874
  O        42.0346216388       31.5064079338        1.2466928450
  O        20.3174740059        1.0363990279        1.4852930966
  O        43.2761049434       33.1824344772       13.5697510222
  O        42.0053203386       31.5840405929       14.5778550748
  O        40.5790969537       33.7751954566       13.9304298523
  O        22.3672275814        1.3844423553        0.0030293092
  O        36.6727529708       35.0997276720        1.2384637030
  O        16.4456348468        0.0638649238       14.6629386989
  O        17.9363348146        2.0431990981       13.3212788334
  O        18.9188409582        3.5931973519       14.6607215849
  O        29.7333816621       19.2802435361       12.0939780463
  O        29.6931074080       18.7525335327        4.0852561735
  O        31.4705120406       15.8253532586       12.0806331280
  O        31.2351121919       16.4172951789        4.0688791500
  O        32.0587795263       17.3005403946        9.8306289462
  O        29.1376179396       17.3679642002       10.4032911692
  O        30.4159818510       15.9052271937        6.6590254415
  O        31.4324873236       18.1022672233        7.3290915503
  O        30.6226611634       19.7878147634        9.1484105974
  O        28.7628594928       18.0126651293        6.4009458406
  O        39.4568544333       35.2437313325       11.9968962759
  O        19.1415515445        0.0044306521        3.9956346223
  O        41.9694643150       35.1726730623       12.0820268720
  O        21.6913038466       -0.0693260618        3.9012390872
  O        51.3646276694       18.6142737779       12.0002424879
  O        10.7510061080       18.7472591525        3.9100902809
  O        50.0796075127       16.4128536131       12.0866123898
  O         9.5239167547       16.4831316607        3.9963277998
 Zr         9.2953221686       16.0526987770       14.1770728124
 Zr        49.8347967710       16.0068251422        1.7518765107
 Zr        22.0734629275        0.0297169820       14.1841211422
 Zr        42.4610455163       35.1533052516        1.8061669065
 Zr        29.5727766331       19.0503253776       14.3002503562
 Zr        29.5800014676       19.1466200925        1.8643099366
 Zr        11.0362749747       19.0523602296        1.8326802149
 Zr        11.0421770530       19.1551566235       14.2464274791
 Zr        31.3332872879       16.0842442281        1.8803640210
 Zr        31.3537897911       15.9434053150       14.2001650267
 Zr        18.6013045426       -0.0015627779        1.7685728550
 Zr        18.5065817224       -0.0084569388       14.2085950578
 Zr        12.2995480615       16.3230857830       15.9852028554
 Zr        48.6147242399       18.8328379936        0.0156691649
 Zr        20.3149636713        2.4729926262       15.9853910802
 Zr        40.6435692051       32.6869725850       15.9730988938
 Zr        28.3341566176       16.3116998797        0.0724508331
 Zr        32.6123163081       18.7955579452        0.0517687277
  H        31.9639044455       18.7355613641        7.8617027462
  O        30.7889946053       15.0906535566        9.5820832582
  H        31.0555265818       15.3633807603       10.5555689040
  H        29.8269354549       14.9621005357        9.6642267880
  O        33.0840427398       15.2428990515        6.0671020854
  H        33.5483430652       16.0198976378        6.4182030846
  H        32.1731768963       15.3365443339        6.4348717184
  O        28.1370377638       20.1525048315        7.9188694487
  H        27.3701408299       19.6233682447        7.6304951031
  H        28.0551235445       20.3020121971        8.8798924733
  O        30.5399732908       20.9486776241        5.9088048937
  H        30.4072627184       20.2642086709        5.2093390477
  H        29.6847862720       21.4052602928        5.9435802211
  H        29.0844312337       17.7744890598        9.4971202679
  H        32.0804388695       19.0290423843       11.4893658587
