     586
 i =      228, E =     -4847.8445466249
  C        11.8587473668       14.0535755373       13.7364696981
  C        12.4562814067       12.8906106519       13.0181504640
  C        11.7045541143       12.1716605260       12.0765443129
  C        12.2809052480       11.1094235366       11.3842134720
  C        13.6214812417       10.7396738331       11.6119384945
  C        14.3546623616       11.4432016483       12.5854175400
  C        13.7817985622       12.5082169521       13.2768887412
  C        14.2610245056        9.6490033882       10.8385656810
  C        14.2564977029        9.6569903664        9.4168636080
  C        13.7433925031       10.7591508258        8.6629644719
  C        49.1268138947       21.2332255239       13.8745882722
  C        48.5500336554       22.4011453838       13.1474442099
  C        49.3001022350       23.0685829569       12.1665660459
  C        48.7331329627       24.1076842384       11.4333324190
  C        47.4025386380       24.5091780558       11.6618763553
  C        46.6715300420       23.8601882323       12.6752657718
  C        47.2340310927       22.8153266486       13.4046413239
  C        46.7722841023       25.5868835210       10.8646190408
  C        46.7612986628       25.5573034986        9.4428579194
  C        47.2611983416       24.4421903193        8.6993695126
  C        14.8604585256        8.5706625970        8.7036006341
  C        14.8916678839        8.5969804031       11.5152105675
  C        49.1132466359       21.2034663803        2.1504267660
  C        48.5278274423       22.3647534636        2.8777129759
  C        49.2671384404       23.0256727980        3.8704167436
  C        48.6907797209       24.0602290130        4.6018590997
  C        47.3602689896       24.4567485162        4.3637888596
  C        46.6397509703       23.8116327565        3.3404837849
  C        47.2133374975       22.7757193674        2.6087391236
  C        46.7218447912       25.5317785766        5.1547488193
  C        46.7335445654       25.5281384799        6.5764478387
  C        47.2489510117       24.4289005134        7.3328176617
  C        40.6354017002       17.1291319297        7.3234723926
  C        40.6536574941       17.1524198520        4.5145161825
  C        11.8830432866       14.0865706019        2.2905732862
  C        12.4724568110       12.9107712019        2.9948261689
  C        11.7149367568       12.1774923549        3.9208568161
  C        12.2815730006       11.0950748388        4.5893095359
  C        13.6204463567       10.7215044927        4.3575953233
  C        14.3584468740       11.4371735588        3.3968954855
  C        13.7929713204       12.5183059451        2.7241758965
  C        14.2540772896        9.6247618950        5.1280056793
  C        14.2528266598        9.6447318018        6.5498432250
  C        13.7429245718       10.7536641359        7.2969181190
  C        22.5112477355        3.2441947701       13.7482158635
  C        23.2248289385        4.3502303609       13.0488562415
  C        24.2193113936        4.0714342561       12.0998111210
  C        24.8445520028        5.1121063557       11.4179274338
  C        24.4909678761        6.4533528997       11.6655217754
  C        23.5249277787        6.7236985959       12.6516494974
  C        22.8948799703        5.6848161548       13.3316638255
  C        25.0946901787        7.5607154420       10.8899598054
  C        25.0622993123        7.5558731925        9.4686929027
  C        24.3553338724        6.5591474187        8.7236024205
  C        38.3047579735       31.9282189599       13.8425613906
  C        37.5818027132       30.8356138655       13.1307020499
  C        36.6251356408       31.1333294508       12.1483578748
  C        36.0162917745       30.1086980356       11.4287544294
  C        36.3492552878       28.7613428738       11.6701722385
  C        37.2762275317       28.4711449612       12.6888890943
  C        37.8892741225       29.4943113570       13.4070408297
  C        35.7548722967       27.6652231364       10.8726880165
  C        35.7881215889       27.6791315333        9.4514051871
  C        36.4895720677       28.6844359576        8.7139398361
  C        25.6855490341        8.6251732977        8.7482860629
  C        25.6949024784        8.6340549924       11.5603758651
  C        38.3288658020       31.9624147785        2.1602037444
  C        37.6081429305       30.8876835574        2.8997574262
  C        36.6829854807       31.1929181405        3.9095576645
  C        36.0768569224       30.1714683195        4.6381731633
  C        36.3820908894       28.8202673213        4.3796770764
  C        37.2835616254       28.5251250888        3.3388955821
  C        37.8919022845       29.5428733377        2.6117705210
  C        35.7815534636       27.7175541059        5.1636268254
  C        35.8015903592       27.7060287012        6.5852267196
  C        36.4959039791       28.6973579766        7.3474358966
  C        46.1355862464       26.6208044004        7.2865710713
  C        46.0879212311       26.5801356198        4.4786760357
  C        22.4590098823        3.2561146879        2.2632676417
  C        23.1484143546        4.3666821164        2.9878607820
  C        24.1476443486        4.0840019254        3.9325829951
  C        24.7707057274        5.1165880712        4.6293374125
  C        24.4148651298        6.4614100850        4.4035071838
  C        23.4386169786        6.7373632736        3.4275290892
  C        22.8106336478        5.7049851508        2.7316524157
  C        25.0426900450        7.5613634565        5.1773533062
  C        25.0361203025        7.5556846523        6.6000921774
  C        24.3411615871        6.5601096411        7.3570499557
  C        26.6246770491       17.8631010464       13.7808615305
  C        25.3159762459       17.9117210304       13.0569504355
  C        25.0563067533       18.9123396809       12.1066936735
  C        23.8438834741       18.9351443492       11.4193393755
  C        22.8535951054       17.9605706022       11.6601307811
  C        23.1094109631       16.9831647238       12.6404962625
  C        24.3237606893       16.9550342165       13.3252634787
  C        21.5802085634       17.9479779174       10.8951484954
  C        21.5802710244       17.9293738099        9.4724292345
  C        22.7860151420       17.8102317128        8.7115193321
  C        34.4297368538       17.2281793305       13.8822148780
  C        35.7247595246       17.1736745451       13.1454022137
  C        35.9317734686       16.2025460577       12.1534197705
  C        37.1169658126       16.1838665425       11.4246639306
  C        38.1258052278       17.1355432108       11.6684925802
  C        37.9221457558       18.0865760992       12.6862471666
  C        36.7345880616       18.1098649234       13.4134133351
  C        39.3816366949       17.1400009900       10.8862846178
  C        39.3776327518       17.1520230324        9.4648988687
  C        38.1705764480       17.2720396582        8.7069457615
  C        20.3334917522       17.9446377143        8.7637856991
  C        20.3551052091       17.9471762539       11.5773360592
  C        34.4755873230       17.2448098708        2.1857622866
  C        35.7779021714       17.1647665400        2.9077891648
  C        35.9871560507       16.1828531793        3.8882178268
  C        37.1723883393       16.1628336253        4.6179173068
  C        38.1764913355       17.1222543365        4.3838276193
  C        37.9737193166       18.0779516101        3.3709015071
  C        36.7858851714       18.1045635509        2.6457615881
  C        39.4229414725       17.1402335552        5.1791383248
  C        39.3987014276       17.1521961217        6.5998651537
  C        38.1806482361       17.2695353123        7.3405953281
  C        35.1793320054       26.6223028454        7.2890380511
  C        35.1887904806       26.6487898852        4.4802871657
  C        26.5709135719       17.8240580304        2.3312674191
  C        25.2567762269       17.8752140684        3.0362233269
  C        24.9946325189       18.8821980006        3.9775091263
  C        23.7770144122       18.9111909373        4.6512277139
  C        22.7923505829       17.9330148076        4.4075309799
  C        23.0484541629       16.9513419641        3.4329179755
  C        24.2666911010       16.9203565475        2.7572344518
  C        21.5294956114       17.9163128465        5.1817554687
  C        21.5544320972       17.9112858813        6.6034378186
  C        22.7736261245       17.8010609497        7.3452241776
  C        14.0469173387       17.8288773690        2.2943468402
  C        15.3512319413       17.8865592455        3.0204270244
  C        15.6072878907       18.8908885564        3.9670956753
  C        16.8160593641       18.9132083965        4.6604335285
  C        17.8035228107       17.9341008277        4.4294511476
  C        17.5520128719       16.9536076202        3.4510572825
  C        16.3426486905       16.9267292858        2.7592255487
  C        19.0730960566       17.9198163309        5.1982611238
  C        19.0727472838       17.9193416747        6.6208553346
  C        17.8661675821       17.8194060715        7.3825398685
  C        46.8066618406       17.2187170434        2.1637694067
  C        45.5182948490       17.1578442874        2.9101490958
  C        45.3145899788       16.1821471790        3.8979915251
  C        44.1340511058       16.1657336100        4.6354155664
  C        43.1288833527       17.1251887322        4.4060187714
  C        43.3299098879       18.0804389934        3.3916082084
  C        44.5110928337       18.1008552661        2.6552544858
  C        41.8767912950       17.1380784872        5.1943095981
  C        41.8824449151       17.1401080937        6.6158802832
  C        43.0910686533       17.2354644293        7.3750796939
  C        20.3198820706       17.9342795456        7.3287934585
  C        20.2970889540       17.9009608286        4.5157354441
  C        46.7860613026       17.2313257680       13.8845334093
  C        45.4831585908       17.1270004180       13.1697567946
  C        45.2638942560       16.1302209213       12.2070771185
  C        44.0762640701       16.1068241679       11.4804098953
  C        43.0793634496       17.0770423725       11.7000718772
  C        43.2885076542       18.0428334243       12.7020283603
  C        44.4772541129       18.0727747450       13.4235806721
  C        41.8345198490       17.1039177938       10.9023458061
  C        41.8609681763       17.1211553556        9.4816665163
  C        43.0809745750       17.2235456547        8.7416332430
  C        46.1533161799       26.6372056793        8.7211148248
  C        46.1623488436       26.6560042554       11.5307495129
  C        14.0460742712       17.8321738470       13.7037336310
  C        15.3676964406       17.9079576962       13.0137639965
  C        15.6411813424       18.9249647609       12.0868642898
  C        16.8706085651       18.9642473129       11.4327734149
  C        17.8546844640       17.9857059066       11.6794574575
  C        17.5879759212       16.9974766935       12.6445494168
  C        16.3605314407       16.9577377856       13.3022459471
  C        19.1224360220       17.9635859712       10.9105464242
  C        19.0984267301       17.9408733817        9.4889130288
  C        17.8786511880       17.8291564216        8.7485178654
  C        28.8041699344       14.0905486717        2.3956651117
  C        28.1867274801       12.9203890142        3.0847017486
  C        28.9107636447       12.1698312778        4.0228235448
  C        28.3072001230       11.0977655414        4.6751723712
  C        26.9662260899       10.7521621495        4.4124046252
  C        26.2635911121       11.4826807443        3.4375808170
  C        26.8646716747       12.5555487443        2.7842324089
  C        26.2956695904        9.6734455792        5.1737861595
  C        26.2870347808        9.6987818768        6.5947431045
  C        26.7971234268       10.8091510062        7.3401956103
  C        32.1827540613       21.2373127134        2.1478298361
  C        32.7790142748       22.4033163304        2.8640222554
  C        32.0431664590       23.0676328026        3.8568341025
  C        32.6193255599       24.1042210500        4.5840917041
  C        33.9475446570       24.5029924821        4.3400539374
  C        34.6658882930       23.8569063453        3.3162472959
  C        34.0919501240       22.8152668888        2.5904017782
  C        34.5827410876       25.5742368530        5.1398828469
  C        34.5873933403       25.5386024477        6.5612639207
  C        34.0897633075       24.4178895129        7.2986233367
  C        25.6764031224        8.6218119589        7.3138857069
  C        25.6572941285        8.6237455789        4.5007118507
  C        32.1126366093       21.2255152725       13.8748173962
  C        32.7121082443       22.3668571501       13.1228283786
  C        31.9910042864       23.0156410620       12.1086303678
  C        32.5799358804       24.0405697175       11.3719390563
  C        33.9038412032       24.4467104530       11.6310587146
  C        34.6083561603       23.8092957588       12.6702014136
  C        34.0243521663       22.7786459319       13.4019329876
  C        34.5491259072       25.5259533870       10.8490336903
  C        34.5697565772       25.5145165171        9.4273593266
  C        34.0808142584       24.4071152934        8.6651947628
  C        40.6242867407       17.1242555318        8.7573678722
  C        40.6038165693       17.1320592784       11.5671650127
  C        28.7381865351       14.0674359111       13.8208033271
  C        28.1266816350       12.9205185702       13.0827998446
  C        28.8710991070       12.2084946907       12.1294980941
  C        28.2896252917       11.1559278524       11.4259832719
  C        26.9484411003       10.7868624001       11.6548287992
  C        26.2215580517       11.4851263911       12.6365878625
  C        26.8010351057       12.5399119464       13.3396217342
  C        26.3062319297        9.6961968249       10.8820929319
  C        26.2944958789        9.7100166685        9.4607579026
  C        26.7988271603       10.8155720062        8.7061310944
  C        18.1352924302        3.1810002188        2.3222369467
  C        17.4060980944        4.2782351133        3.0209065665
  C        16.3904836862        3.9999185474        3.9485574010
  C        15.7428144074        5.0399319708        4.6120519785
  C        16.0947047709        6.3836505622        4.3722916879
  C        17.0838877545        6.6531253721        3.4083031169
  C        17.7329151246        5.6157595456        2.7432417779
  C        15.4704175604        7.4913751176        5.1353056068
  C        15.4857054693        7.4906729995        6.5570141987
  C        16.1871788655        6.4970077079        7.3101967216
  C        42.9459938143       31.8595152175        2.0780245718
  C        43.6463779667       30.7719062782        2.8219500390
  C        44.5919638876       31.0932168569        3.8079822522
  C        45.1976927286       30.0876536842        4.5555965585
  C        44.8711921395       28.7345945194        4.3407817511
  C        43.9453213612       28.4202702957        3.3276028272
  C        43.3364784914       29.4254204629        2.5796099649
  C        45.4887607419       27.6552843398        5.1439516525
  C        45.4929371906       27.6809529759        6.5656389486
  C        44.8058891877       28.6890301608        7.3122556247
  C        14.8567750801        8.5631833296        7.2693791105
  C        14.8752091951        8.5631891714        4.4567157179
  C        42.9464985344       31.9614624968       13.8038250322
  C        43.6916955787       30.8854007106       13.0903460910
  C        44.6562830206       31.1913185051       12.1180310074
  C        45.2777998098       30.1717344883       11.4003104915
  C        44.9540528995       28.8214016975       11.6379587613
  C        44.0205987422       28.5237370681       12.6487716792
  C        43.3923475610       29.5404926880       13.3609544906
  C        45.5630713809       27.7240159034       10.8526974005
  C        45.5334102966       27.7173952001        9.4314035000
  C        44.8271296039       28.7076475534        8.6784399293
  C        35.1715326581       26.6093621760        8.7235593348
  C        35.1533408604       26.5878302934       11.5329205207
  C        18.1484785042        3.2469235047       13.7014655006
  C        17.4298153626        4.3437257378       12.9922614283
  C        16.4147246021        4.0524523526       12.0685552993
  C        15.7663932429        5.0830899747       11.3931984769
  C        16.1209331994        6.4283372198       11.6160721699
  C        17.1121124951        6.7117203288       12.5735405018
  C        17.7597983523        5.6828071475       13.2532746327
  C        15.4905224824        7.5240638208       10.8436242250
  C        15.4965649452        7.5074992086        9.4224953837
  C        16.1933238543        6.5057908296        8.6758018297
  H        10.6724075231       12.4657675795       11.8995722248
  H        11.6945871143       10.5508943740       10.6577348323
  H        15.3916864836       11.1685904519       12.7671564446
  H        14.3512366785       13.0714871923       14.0123104773
  H        13.3763032766       11.6312291227        9.1962998296
  H        50.3228545299       22.7486298717       11.9819130273
  H        49.3196405893       24.6230380058       10.6758309471
  H        45.6419768415       24.1608193831       12.8583228022
  H        46.6629898964       22.2899556935       14.1666240553
  H        47.6296884010       23.5757968767        9.2410639154
  H        14.8718500784        8.5881673776       12.6035127762
  H        50.2872594429       22.7029744410        4.0651890133
  H        49.2692146851       24.5758692814        5.3652069585
  H        45.6102577476       24.1086773209        3.1515968011
  H        46.6524384958       22.2533142155        1.8373972879
  H        47.6076845619       23.5517702285        6.8019027466
  H        40.6601750019       17.1179509826        3.4267869394
  H        48.6870860766       14.0948429568       15.7949512346
  H        10.6813992901       12.4664159179        4.0981247355
  H        11.6897493799       10.5245707521        5.3018925697
  H        15.3939404602       11.1594345683        3.2110889660
  H        14.3653073935       13.0878016931        1.9957384953
  H        13.3760878659       11.6222635228        6.7582623054
  H        47.9302807862       14.2179481169        1.7159280298
  H        47.7799915922       14.3731448957       14.4900602360
  H        49.0840100807       18.5523728203        2.8725814083
  H        10.4160688136       14.1342832864        0.0037556239
  H        24.4796821167        3.0331002164       11.9067901916
  H        25.6156765084        4.8961141738       10.6816255603
  H        23.2448110446        7.7563681430       12.8489539542
  H        22.1265196888        5.8836377151       14.0747666337
  H        23.7934418221        5.8035230768        9.2648266158
  H        36.3835341780       32.1750675167       11.9508341254
  H        35.2739120193       30.3429184895       10.6689640673
  H        37.5409627100       27.4336824632       12.8823643223
  H        38.6308466049       29.2783151346       14.1724326908
  H        37.0535112295       29.4352798891        9.2597219918
  H        25.7321503075        8.6163445107       12.6481029848
  H        36.4605152431       32.2363673348        4.1211138305
  H        35.3543922471       30.4127620817        5.4147236450
  H        37.5300856090       27.4856549526        3.1329145318
  H        38.6113180791       29.3208037851        1.8274441876
  H        37.0657169477       29.4577762858        6.8212250592
  H        46.1093183064       26.5874750890        3.3906395240
  H        44.6682687745       35.1162133048       15.8087669517
  H        24.4268926256        3.0465972599        4.1023855639
  H        25.5494466921        4.8905371490        5.3546082901
  H        23.1522253077        7.7709862645        3.2441952758
  H        22.0409341300        5.9149336794        1.9925677884
  H        23.7676385635        5.8058013495        6.8261680692
  H        44.9538500201       34.3904739987        1.7003433651
  H        44.9018931702       34.2068521987       14.4854853025
  H        40.6659815201       33.2089524017        2.8581532748
  H        23.1501396183        1.9580436375        0.0106080191
  H        25.8167261819       19.6691965295       11.9264361704
  H        23.6472695102       19.7181539806       10.6899031205
  H        22.3568653755       16.2219621344       12.8362539495
  H        24.5310869617       16.1867028994       14.0665631118
  H        23.7272694679       17.6930396663        9.2407069881
  H        35.1496499607       15.4720075614       11.9613632474
  H        37.2762791388       15.4235980138       10.6631553286
  H        38.6943331250       18.8289093956       12.8773829186
  H        36.5594916588       18.8573617141       14.1837416373
  H        37.2305188368       17.3933810381        9.2373404272
  H        20.3617298957       17.9851600234       12.6652881768
  H        35.2055310066       15.4491607297        4.0739262508
  H        37.3325436926       15.3994878164        5.3762571383
  H        38.7438919699       18.8241776260        3.1869818570
  H        36.6059412044       18.8599847391        1.8844953444
  H        37.2482808103       17.3877628819        6.7962915232
  H        35.1513780156       26.6803234192        3.3930443285
  H        28.5005635850       21.0824972709       15.8890687449
  H        25.7567582281       19.6351530097        4.1642887618
  H        23.5742131478       19.6963739932        5.3763502102
  H        22.2961912691       16.1895200420        3.2388537078
  H        24.4805123207       16.1506049759        2.0195195113
  H        23.7056148063       17.6778440327        6.8014714300
  H        28.9940475402       21.7271279996        1.7539888711
  H        29.1885286087       21.7272715040       14.5695981776
  H        32.1350657015       18.5788596136        2.9683813940
  H        27.4085518492       19.0742443716        0.0857358796
  H        14.8485509501       19.6499119869        4.1441408347
  H        17.0105266794       19.6986297042        5.3876561604
  H        18.3035836743       16.1894311109        3.2635676504
  H        16.1374836026       16.1564688251        2.0195484039
  H        16.9237062365       17.7019946817        6.8555738473
  H        46.0982733314       15.4506833671        4.0805484380
  H        43.9751606188       15.4017897328        5.3932991449
  H        42.5609145239       18.8287383468        3.2114460586
  H        44.6840777572       18.8523537578        1.8885311856
  H        44.0329645031       17.3494260933        6.8461118437
  H        20.2905874448       17.9281260283        3.4275312306
  H        46.0398664477       15.3890902290       12.0296102808
  H        43.9081022760       15.3340580876       10.7334648344
  H        42.5229655632       18.7956948299       12.8777181872
  H        44.6613336006       18.8374879692       14.1741153389
  H        44.0151786130       17.3271236523        9.2859661080
  H        46.1991825458       26.6825095754       12.6181960561
  H        52.7411474085       21.0626098659        0.1998064147
  H        14.8803234538       19.6784990476       11.8956152066
  H        17.0813409601       19.7560068069       10.7170622717
  H        18.3387481652       16.2352995539       12.8429180542
  H        16.1397110113       16.1817936862       14.0312062385
  H        16.9455808902       17.7190512519        9.2928724352
  H        52.3223437636       21.6732123445       14.2892052684
  H        52.0130925942       21.7019197876        1.5007467955
  H        49.0675127555       18.6077967287       13.1990286284
  H        13.2476157255       19.0163300348       15.9723392029
  H        29.9451164351       12.4387073853        4.2252154598
  H        28.8699146402       10.5138155014        5.4003303464
  H        25.2274987271       11.2250953060        3.2276314962
  H        26.3208061816       13.1412120417        2.0471138236
  H        27.1613148286       11.6767532410        6.7982131507
  H        31.0256862358       22.7422227207        4.0570793833
  H        32.0441610060       24.6181275319        5.3510723250
  H        35.6940866685       24.1557748047        3.1228008263
  H        34.6520681489       22.2896916812        1.8204065557
  H        33.7358966267       23.5483875526        6.7518750597
  H        25.6859483270        8.6049727747        3.4126688524
  H        30.9707623468       22.6998555569       11.9035424447
  H        32.0128895129       24.5457837629       10.5931125861
  H        35.6334828598       24.1108430578       12.8753491462
  H        34.5731455533       22.2643172666       14.1874402268
  H        33.7218293660       23.5285585913        9.1935693048
  H        40.5958194503       17.0935911088       12.6547858440
  H        32.5211390689       14.1541832832        0.2591213591
  H        29.9102116760       12.4897561667       11.9694094132
  H        28.8733498926       10.5973361424       10.6972393788
  H        25.1844524459       11.2114955550       12.8196716934
  H        26.2371754300       13.0950806349       14.0856540038
  H        27.1627868934       11.6882597734        9.2406729859
  H        33.2923438688       14.1668559524       14.4200510941
  H        33.4074285502       14.3933480929        1.6195934922
  H        32.0705323467       18.5375930221       13.1374956759
  H        30.2195348411       14.1931073027        0.0892674632
  H        16.1184555653        2.9634225936        4.1350527238
  H        14.9534114136        4.8205775788        5.3277721518
  H        17.3661981477        7.6860063992        3.2150497354
  H        18.5148022758        5.8183835244        2.0152298515
  H        16.7536888699        5.7396226439        6.7767136128
  H        44.8283277473       32.1402842812        3.9821373513
  H        45.9376385721       30.3413708902        5.3114747964
  H        43.6826002664       27.3782060120        3.1574999143
  H        42.5998258261       29.1900763081        1.8149858916
  H        44.2305897170       29.4368336294        6.7739453952
  H        14.8513895970        8.5464223541        3.3684974231
  H        44.8998505723       32.2339941323       11.9265864012
  H        46.0247081144       30.4129575705       10.6470735324
  H        43.7637038275       27.4839992646       12.8403691466
  H        42.6459270196       29.3176628461       14.1194613112
  H        44.2686420450       29.4705587949        9.2130078050
  H        35.1064952542       26.6024036848       12.6201914258
  H        36.6049602253       35.1338503392        0.1858538626
  H        16.1437106227        3.0128730991       11.8987281090
  H        14.9741377024        4.8562529374       10.6830324291
  H        17.3954320572        7.7472073291       12.7506112355
  H        18.5425150514        5.8932538596       13.9782081447
  H        16.7646429915        5.7554690035        9.2142464722
  H        36.2779460595       34.4828012279       14.2676828087
  H        36.3802249488       34.2095067355        1.5051448362
  H        40.5806326043       33.2025694197       13.1482069678
  H        17.4705917544        1.9471910010       15.9688395563
  H        28.7938067064       18.9154174963        4.3487526636
  H        29.7718677101       19.9238778829       11.6630209375
  H        32.3382891702       16.2655366542       11.7860851544
  H        31.0180730251       15.4038476061        4.3909759239
  H        28.3792675874       17.3837930543        7.0044636361
  H        29.3672086457       15.2014698828        6.7025382705
  H        31.4965951440       20.3534379217        9.3210486491
  H        32.9246433450       17.8190502846        9.2013015820
  H        28.7313518089       17.6563538076       10.9714893742
  H        18.8530936875        0.8689532409        4.3403114172
  H        40.5279418530       35.2291139300       11.9469379476
  H        42.3243448060       34.4192436078       11.5851297955
  H        22.0878032491        0.6918527771        4.3568555685
  H        11.5968625047       18.7131779077        4.3877124138
  H        52.2648730910       18.4310924245       11.6721047752
  H        49.2552447168       16.4769079150       11.5794078521
  H        10.1504013749       15.7981879104        4.2980218020
  H        50.8499868910       17.6923617834       11.9491818375
  H        10.0462342530       17.3944500749        4.0571086755
  H        20.2143262585        0.0021985662        4.0471465786
  H        39.1836023300       36.1246607618       11.6817162356
 Ni        31.0689684867       18.2384507248       10.6623131039
 Ni        31.1556978885       16.4297274202        8.1630979389
 Ni        29.9739982667       19.1565854941        7.7448342288
 Ni        30.2248016936       17.3531571745        5.4095593901
  O        10.6499980174       14.3650859468       13.4806921388
  O        12.6132188514       14.6575632525       14.5787847343
  O        49.1481346775       16.8459074624       15.9846341216
  O        50.3502659130       20.9359112478       13.6429816896
  O        48.3485579218       20.5933630181       14.6608111076
  O        11.0517394188       17.0538229784       14.4956023979
  O        50.3210469507       20.8816860384        2.4119548702
  O        48.3467567326       20.5867935470        1.3322706058
  O        49.5438668716       18.2484528710        2.0733510532
  O        12.3591450377       18.6245820814        0.0048133205
  O        48.6932912141       14.1485585709       14.7462081499
  O         8.2099731274       14.2102821764        1.3275770183
  O        10.7354655668       14.5067052928        2.6694421107
  O        12.5718928911       14.5828439305        1.3335806115
  O        22.8445642477        2.0433411558       13.4820368596
  O        21.6051396212        3.5920855182       14.5849563368
  O        42.0582831770       34.1374379332       15.9738932697
  O        37.9818727869       33.1361619823       13.5669938060
  O        39.2188486771       31.5762205153       14.6622170921
  O        20.3083042592        1.0393824786       14.4968918023
  O        38.0246956473       33.1858272563        2.4202170898
  O        39.2197286141       31.5843490132        1.3308979335
  O        40.6523119643       33.7694056408        2.0653705437
  O        18.2553041624        1.3760607447        0.0018380930
  O        44.6222207511       35.1005645557       14.7536070677
  O        24.2053697640        0.0000698182        1.3259448022
  O        22.7529071883        2.0584629997        2.5892083137
  O        21.6240185642        3.5958227704        1.3469761956
  O        27.5027539624       18.7493159359       13.4879202865
  O        26.7655929631       16.9349378553       14.6508654746
  O        30.6661476773       19.4062614900        0.0688432159
  O        33.5561478509       16.3401584923       13.5871034615
  O        34.2782271159       18.1708888817       14.7313906244
  O        29.5751056244       17.0616324015       14.5607132774
  O        33.6137564643       16.3312161370        2.4207985617
  O        34.3056610303       18.2466538891        1.4119239611
  O        31.6534552550       18.3122244728        2.1691922417
  O        30.3241582521       15.1586809856        0.0902977557
  O        28.5539010718       21.0349714985       14.8333982414
  O        28.5139111605       20.9552971090        1.4094298832
  O        27.4610734620       18.6762611947        2.6679873109
  O        26.6943978792       16.9301575160        1.4188122201
  O        13.1489262013       18.6929595892        2.5925982389
  O        13.9198201695       16.9163326022        1.4104661619
  O        50.5963380576       19.3502673668        0.0255741111
  O        47.6845250013       16.3266128974        2.4220846143
  O        46.9523315664       18.1757927229        1.3294835348
  O        11.0699959737       17.0154464546        1.4947638693
  O        47.6762543011       16.3355302614       13.6480833582
  O        46.9281016818       18.2358303541       14.6599456018
  O        49.5687572519       18.3177281022       13.9771654946
  O        10.3187012484       15.1001315855        0.0021664373
  O        52.6707751024       21.0278740845        1.2469390839
  O        12.1468399194       20.8911570509       14.6681048094
  O        13.1083786027       18.6136537684       13.3204679944
  O        13.9576581765       16.9871597858       14.6600691618
  O        29.9902380881       14.4376480728        2.7340784679
  O        28.0883160146       14.6545772572        1.4988792560
  O        32.1400281161       16.8545874419        0.0809735895
  O        30.9668530319       20.9490961688        2.4174931930
  O        32.9469482411       20.5982564456        1.3425359553
  O        29.5698932665       17.0780468403        1.5829892039
  O        30.8783430709       20.9527402255       13.6598306422
  O        32.8805708962       20.5836443229       14.6622264650
  O        31.6781419989       18.2499987307       13.9843043050
  O        28.2947495621       18.6775986175        0.0817214242
  O        32.4923585849       14.2135925014        1.3351692872
  O        32.4087303361       14.2152985978       14.8208474205
  O        29.9090651315       14.4351593235       13.4854691536
  O        28.0336492323       14.5921666852       14.7521611534
  O        17.8892157185        1.9666276741        2.6679288369
  O        18.9561965617        3.5271083517        1.4130873423
  O        39.1686914222       34.1388793807        0.0022812331
  O        43.2802499944       33.0590109413        2.3367944541
  O        42.0346034507       31.5064682568        1.2467503231
  O        20.3176479217        1.0367490017        1.4853939042
  O        43.2760393522       33.1825005832       13.5697698489
  O        42.0053154478       31.5840613611       14.5778771730
  O        40.5789678907       33.7749162866       13.9305642360
  O        22.3672510256        1.3845187337        0.0030210526
  O        36.6727401008       35.0998012866        1.2383997058
  O        16.4455593283        0.0640837443       14.6630703498
  O        17.9364837627        2.0432975684       13.3212689775
  O        18.9189688685        3.5931020252       14.6608110843
  O        29.8695233427       19.0378385652       12.0598580717
  O        29.7353454241       18.9753198946        4.0833506024
  O        31.4286791687       16.0539718807       12.0670359054
  O        31.3059396805       16.2801557063        4.0702048955
  O        32.2597776969       17.2209296972        9.5801373726
  O        29.0622536074       17.3767496639       10.0900290110
  O        30.2075946395       15.6702313677        6.5846282662
  O        31.3969026141       18.0237307111        6.9025856840
  O        30.6709902353       19.8518194709        9.4146017933
  O        28.6829550256       18.1542791320        6.4932785024
  O        39.4568043112       35.2439018716       11.9968622016
  O        19.1410750200        0.0044621847        3.9956911226
  O        41.9696045756       35.1727319601       12.0820830123
  O        21.6912226836       -0.0693431310        3.9009991549
  O        51.3651050889       18.6142694733       12.0003305128
  O        10.7511314782       18.7472123030        3.9100381539
  O        50.0797152987       16.4128129063       12.0866392117
  O         9.5246159834       16.4830342775        3.9963493023
 Zr         9.2968115521       16.0526893247       14.1774039711
 Zr        49.8364852149       16.0065402516        1.7514606354
 Zr        22.0732457121        0.0296493124       14.1839673985
 Zr        42.4609801046       35.1533785286        1.8060793478
 Zr        29.6251448528       19.0873647308       14.2728940222
 Zr        29.5842731845       19.1860821994        1.8740758379
 Zr        11.0381257539       19.0518418724        1.8328417518
 Zr        11.0439707483       19.1547298903       14.2459165504
 Zr        31.3563270202       16.1031734818        1.8865308040
 Zr        31.3893925250       15.9913038968       14.2428235371
 Zr        18.6010872917       -0.0013421993        1.7684302413
 Zr        18.5063174288       -0.0081309393       14.2085793734
 Zr        12.3022289601       16.3236802216       15.9851552347
 Zr        48.6166985481       18.8331068717        0.0153907658
 Zr        20.3146924492        2.4730686787       15.9853282399
 Zr        40.6437324135       32.6870429037       15.9731236207
 Zr        28.3531120440       16.3451728887        0.0877463101
 Zr        32.6311412179       18.8248053563        0.0518831948
  H        32.2420766326       18.4547763065        6.6948644818
  O        30.4974512817       15.1640759395        9.8304452551
  H        30.9094546921       15.4081734402       10.7682136843
  H        30.4244512501       14.1981091135        9.7833558522
  O        32.9133154246       15.2347279793        6.7414828135
  H        33.1243733438       15.8447968518        6.0116633935
  H        31.9918663292       14.9726535346        6.5118728984
  O        27.8787342586       20.1567412060        7.9204358614
  H        27.7688498861       19.4048731421        7.2728095013
  H        27.4751341721       19.8549764591        8.7508659329
  O        30.3276894019       20.5984180459        6.1610978427
  H        30.1501083195       20.0959028805        5.3005924441
  H        29.6209330156       21.2624600753        6.2243746932
  H        29.2205471398       16.4019672347       10.1222001609
  H        32.2473533599       18.8442497852       11.2482765461
