     586
 i =      189, E =     -4847.8414686788
  C        11.8588342037       14.0535546993       13.7364133453
  C        12.4563155643       12.8906534723       13.0180897624
  C        11.7045995153       12.1716494034       12.0765014795
  C        12.2809438928       11.1094102525       11.3841870956
  C        13.6215383360       10.7396771061       11.6119096923
  C        14.3547534517       11.4432970112       12.5853013814
  C        13.7818760329       12.5083179720       13.2767440506
  C        14.2610463736        9.6489976551       10.8385241681
  C        14.2563734132        9.6569220239        9.4168286584
  C        13.7433009486       10.7590961433        8.6629306368
  C        49.1269436599       21.2332499837       13.8745155393
  C        48.5502257812       22.4011901773       13.1474497273
  C        49.3002324562       23.0684995964       12.1664274859
  C        48.7332765485       24.1076265334       11.4332287167
  C        47.4027443227       24.5092913436       11.6618823737
  C        46.6718424588       23.8604817632       12.6754780572
  C        47.2343227117       22.8156050495       13.4048331170
  C        46.7724836229       25.5869805286       10.8646275470
  C        46.7614339912       25.5573276980        9.4428700855
  C        47.2615090442       24.4423111281        8.6993561349
  C        14.8603494489        8.5706027710        8.7035723958
  C        14.8917230275        8.5969960596       11.5151783693
  C        49.1133405863       21.2035551135        2.1504279657
  C        48.5280225845       22.3649378724        2.8775612960
  C        49.2671924906       23.0255165841        3.8706099906
  C        48.6908564059       24.0600789178        4.6020531574
  C        47.3605122318       24.4570121317        4.3636876711
  C        46.6401923364       23.8122472405        3.3400025425
  C        47.2137356443       22.7763475016        2.6082174825
  C        46.7219863932       25.5318999528        5.1547387076
  C        46.7337620491       25.5282441465        6.5764398227
  C        47.2491658909       24.4290030148        7.3328060852
  C        40.6369287839       17.1626275655        7.3253194626
  C        40.6552089179       17.1872869202        4.5163456235
  C        11.8830991609       14.0865596726        2.2906699761
  C        12.4724372306       12.9108070020        2.9949247571
  C        11.7148762627       12.1775202456        3.9209345200
  C        12.2815058062       11.0950967300        4.5893619262
  C        13.6203451915       10.7214104045        4.3575693469
  C        14.3583421095       11.4370930290        3.3968729809
  C        13.7929080671       12.5182430601        2.7241599097
  C        14.2539556648        9.6246629803        5.1279763712
  C        14.2526665101        9.6446437129        6.5498118104
  C        13.7427828459       10.7535873056        7.2968858248
  C        22.5124849180        3.2438025441       13.7485054719
  C        23.2297521531        4.3477741157       13.0496334329
  C        24.2269076034        4.0646483070       12.1045718668
  C        24.8571646630        5.1021202767       11.4225466202
  C        24.5058417234        6.4447435694       11.6656579771
  C        23.5368955102        6.7194708205       12.6478338041
  C        22.9019414811        5.6836976498       13.3282448373
  C        25.1146949273        7.5490267801       10.8895654327
  C        25.0856274144        7.5421227560        9.4681506202
  C        24.3790313519        6.5452022535        8.7229465353
  C        38.3036701359       31.9285322163       13.8430584852
  C        37.5780827857       30.8370807802       13.1322341819
  C        36.6226671219       31.1368804443       12.1491909728
  C        36.0108883907       30.1136751931       11.4300838439
  C        36.3393639424       28.7654199323       11.6726953373
  C        37.2648166837       28.4732511102       12.6923199241
  C        37.8810607026       29.4950137261       13.4098045647
  C        35.7429351725       27.6703892128       10.8752080009
  C        35.7781488969       27.6834922493        9.4539062691
  C        36.4827766189       28.6866959471        8.7165016394
  C        25.7105098745        8.6104433624        8.7475032940
  C        25.7143365420        8.6228718932       11.5597751684
  C        38.3287903532       31.9619948807        2.1606604163
  C        37.6084962966       30.8871886343        2.9007913375
  C        36.6829585281       31.1922579952        3.9103823720
  C        36.0768002366       30.1708635235        4.6391548302
  C        36.3821135261       28.8194296219        4.3814525493
  C        37.2841167961       28.5244816248        3.3409644528
  C        37.8925235971       29.5421790100        2.6136487343
  C        35.7804472332       27.7170819743        5.1654612135
  C        35.7976107769       27.7071042572        6.5872414069
  C        36.4916731140       28.6982707266        7.3499496014
  C        46.1355632686       26.6207657936        7.2865859065
  C        46.0880186785       26.5802573836        4.4786885491
  C        22.4603479705        3.2556593907        2.2628598396
  C        23.1535695670        4.3643003389        2.9866433535
  C        24.1564641874        4.0779087652        3.9264404776
  C        24.7840287694        5.1077618328        4.6230893705
  C        24.4287199697        6.4535377014        4.4024339885
  C        23.4487087380        6.7332859656        3.4312848358
  C        22.8165194181        5.7036110613        2.7351274159
  C        25.0607316659        7.5509000870        5.1764991441
  C        25.0580161855        7.5428355503        6.5992458778
  C        24.3643880947        6.5465062142        7.3563743102
  C        26.6187364971       17.8603195361       13.7814824982
  C        25.3105307994       17.9059643889       13.0570013378
  C        25.0522212108       18.9025469934       12.1022713736
  C        23.8406695261       18.9223177950       11.4134718453
  C        22.8502025190       17.9491378789       11.6585003471
  C        23.1047549992       16.9755694678       12.6428576359
  C        24.3186122969       16.9499710920       13.3283402057
  C        21.5771579411       17.9344536247       10.8938372739
  C        21.5772272890       17.9111520022        9.4714093526
  C        22.7826922895       17.7865934646        8.7110132336
  C        34.4269815994       17.2323556444       13.8789396728
  C        35.7207075568       17.1846559485       13.1387506278
  C        35.9313206339       16.2169293097       12.1446345827
  C        37.1179292352       16.2029675986       11.4180609047
  C        38.1244207738       17.1556839864       11.6669164451
  C        37.9169836906       18.1037997449       12.6861933245
  C        36.7277145625       18.1224750909       13.4107291290
  C        39.3814486172       17.1629933824       10.8868293101
  C        39.3783719691       17.1837870924        9.4658412993
  C        38.1719736404       17.3163616427        8.7082362521
  C        20.3305735868       17.9279876238        8.7629462800
  C        20.3523450890       17.9378038289       11.5761991493
  C        34.4775837818       17.2511622436        2.1818352836
  C        35.7794091577       17.1843655066        2.9095327198
  C        36.0025256081       16.1940868536        3.8783743953
  C        37.1869218748       16.1833867831        4.6100002165
  C        38.1771459400       17.1603935830        4.3881892998
  C        37.9605691565       18.1254120314        3.3879790429
  C        36.7729472559       18.1423902238        2.6612664764
  C        39.4250054805       17.1801953771        5.1815864080
  C        39.4007611052       17.1926671954        6.6016545793
  C        38.1829417809       17.3178832621        7.3418282572
  C        35.1725824782       26.6249941497        7.2912386871
  C        35.1885227767       26.6475505219        4.4823847316
  C        26.5678521243       17.8209737253        2.3320333914
  C        25.2540036986       17.8702262459        3.0372604111
  C        24.9919472824       18.8728448980        3.9830476537
  C        23.7742916683       18.8986289070        4.6567037543
  C        22.7898935874       17.9214646269        4.4080749093
  C        23.0459464248       16.9441227168        3.4292184834
  C        24.2643191634       16.9162261975        2.7539497231
  C        21.5270441685       17.9020135862        5.1816563815
  C        21.5516534777       17.8923516650        6.6031497630
  C        22.7704571698       17.7771569576        7.3447754818
  C        14.0464721092       17.8285406150        2.2942619898
  C        15.3503645161       17.8846552045        3.0201643793
  C        15.6066931972       18.8866327199        3.9691673380
  C        16.8153827895       18.9063678123        4.6625365837
  C        17.8019994273       17.9270797386        4.4289522759
  C        17.5503798238       16.9493984134        3.4478534704
  C        16.3411507649       16.9249642653        2.7561061005
  C        19.0710741729       17.9093374954        5.1977365834
  C        19.0701675707       17.9057951747        6.6201671318
  C        17.8633322458       17.8066944950        7.3815923320
  C        46.8070785986       17.2202253906        2.1642051106
  C        45.5189705258       17.1648101154        2.9118422214
  C        45.3108755685       16.1914718948        3.9009286886
  C        44.1304961177       16.1823845218        4.6389638169
  C        43.1304375182       17.1469215830        4.4084936734
  C        43.3358517790       18.0998947843        3.3929993045
  C        44.5167121100       18.1128887125        2.6562219700
  C        41.8783727895       17.1674106974        5.1964602144
  C        41.8839601438       17.1688223916        6.6179159866
  C        43.0928816433       17.2573191082        7.3776394250
  C        20.3170959575       17.9174547205        7.3281937459
  C        20.2949726711       17.8904185322        4.5152206037
  C        46.7863016084       17.2314679711       13.8849702955
  C        45.4825804689       17.1285890718       13.1710084194
  C        45.2619375852       16.1344645148       12.2060496106
  C        44.0739342420       16.1144074967       11.4797298818
  C        43.0784949151       17.0853833574       11.7023400422
  C        43.2885960023       18.0477966730       12.7072429618
  C        44.4776875636       18.0744718779       13.4281970240
  C        41.8341547840       17.1182447180       10.9040304803
  C        41.8615160750       17.1416222306        9.4835367252
  C        43.0821768460       17.2416417711        8.7440963493
  C        46.1534109032       26.6372051658        8.7211285121
  C        46.1623969532       26.6560186748       11.5307699464
  C        14.0457263291       17.8317966182       13.7037471698
  C        15.3667841642       17.9060895997       13.0135617837
  C        15.6400556362       18.9206900406       12.0840263598
  C        16.8691468484       18.9577115444       11.4293677612
  C        17.8526457511       17.9792418761       11.6783522536
  C        17.5863427710       16.9938689958       12.6463870965
  C        16.3592369886       16.9562256848       13.3044693105
  C        19.1198293576       17.9537800921       10.9093195204
  C        19.0955522860       17.9278212183        9.4878922743
  C        17.8757084261       17.8165429065        8.7475691917
  C        28.8043645421       14.0899462575        2.3960698855
  C        28.1906352019       12.9178369581        3.0845475183
  C        28.9172722733       12.1733145488        4.0254001193
  C        28.3193758580       11.0971955744        4.6760121537
  C        26.9810967070       10.7432123372        4.4109014135
  C        26.2758122885       11.4687282149        3.4340489109
  C        26.8716923764       12.5445595598        2.7808805753
  C        26.3145980854        9.6625448915        5.1727022405
  C        26.3099694880        9.6854357698        6.5938289718
  C        26.8224576686       10.7945119317        7.3395624746
  C        32.1810113378       21.2372265656        2.1468683473
  C        32.7790464569       22.4007916029        2.8663300170
  C        32.0432793803       23.0635961525        3.8603749523
  C        32.6186964045       24.1010531184        4.5871306155
  C        33.9463167062       24.5017973036        4.3425585234
  C        34.6646794746       23.8563846335        3.3182566115
  C        34.0912806034       22.8145430193        2.5920881581
  C        34.5804345918       25.5740368408        5.1421228059
  C        34.5816051926       25.5405545801        6.5636641424
  C        34.0808139184       24.4216317723        7.3016543893
  C        25.7002845264        8.6078257535        7.3130051190
  C        25.6738815930        8.6140147570        4.4999373060
  C        32.1071503053       21.2219597298       13.8705460378
  C        32.7064841151       22.3629640628       13.1175612852
  C        31.9791985291       23.0205811397       12.1137531451
  C        32.5647551316       24.0494449065       11.3797485284
  C        33.8912856142       24.4509583244       11.6320729243
  C        34.6021066105       23.8051529409       12.6614776324
  C        34.0212927713       22.7704211234       13.3901529227
  C        34.5348530314       25.5324680204       10.8512331962
  C        34.5571177135       25.5205442580        9.4296752883
  C        34.0680615093       24.4128336844        8.6681417146
  C        40.6251247857       17.1531864615        8.7589176347
  C        40.6031110376       17.1466363945       11.5683290812
  C        28.7442110114       14.0667760588       13.8162707031
  C        28.1372417090       12.9167194726       13.0788589916
  C        28.8871093218       12.1996084714       12.1335598474
  C        28.3097056221       11.1439783047       11.4311080980
  C        26.9669853236       10.7765237556       11.6534155599
  C        26.2345573257       11.4795175537       12.6275778462
  C        26.8100775198       12.5373205733       13.3294326761
  C        26.3283645345        9.6832442513       10.8812478959
  C        26.3197192504        9.6952050587        9.4599258638
  C        26.8259307180       10.7998148619        8.7054093306
  C        18.1354877241        3.1809671584        2.3223163725
  C        17.4061468568        4.2782288957        3.0209046233
  C        16.3903923334        3.9998749339        3.9483817717
  C        15.7426421830        5.0398617298        4.6118548256
  C        16.0945848287        6.3835800239        4.3722076112
  C        17.0839244500        6.6531090433        3.4083990462
  C        17.7330211590        5.6157554813        2.7433681746
  C        15.4702670144        7.4912713036        5.1352680054
  C        15.4855644168        7.4906002918        6.5569806310
  C        16.1869828624        6.4968876059        7.3101506997
  C        42.9458826266       31.8595222225        2.0780166491
  C        43.6462448337       30.7718730607        2.8220260943
  C        44.5919363466       31.0931895695        3.8079363333
  C        45.1976302535       30.0876390361        4.5556081340
  C        44.8710777932       28.7345965482        4.3408278321
  C        43.9451047881       28.4202604451        3.3277576266
  C        43.3362881619       29.4254071568        2.5797274833
  C        45.4886974679       27.6552947582        5.1439874631
  C        45.4928550898       27.6808979167        6.5656779337
  C        44.8056840173       28.6888836672        7.3123071722
  C        14.8565518571        8.5630615392        7.2693517189
  C        14.8751059538        8.5631058486        4.4566742041
  C        42.9464878556       31.9614577833       13.8039168518
  C        43.6916321489       30.8853208549       13.0903479788
  C        44.6564081169       31.1912188804       12.1182320948
  C        45.2779238777       30.1716307371       11.4005020120
  C        44.9539250144       28.8213389647       11.6379508604
  C        44.0201537306       28.5236704493       12.6484516840
  C        43.3918943766       29.5404432068       13.3606225505
  C        45.5630223368       27.7239608704       10.8527134760
  C        45.5332878919       27.7172655013        9.4314228030
  C        44.8269396703       28.7074930688        8.6784918702
  C        35.1614909827       26.6139210780        8.7258365315
  C        35.1388746858       26.5941767676       11.5353830892
  C        18.1485069840        3.2469203593       13.7015428732
  C        17.4298615606        4.3437688578       12.9923004876
  C        16.4147427769        4.0524677379       12.0686457821
  C        15.7663847519        5.0830994095       11.3932991778
  C        16.1210122226        6.4283425316       11.6160284877
  C        17.1123120245        6.7117337749       12.5733665188
  C        17.7600410467        5.6828356752       13.2531019939
  C        15.4905320111        7.5240515427       10.8435893825
  C        15.4964459761        7.5074215329        9.4224537269
  C        16.1932083825        6.5057164986        8.6757558080
  H        10.6724458200       12.4657338202       11.8995569573
  H        11.6946415474       10.5508633728       10.6577105377
  H        15.3918112887       11.1687545803       12.7669558312
  H        14.3513938911       13.0716279110       14.0120720140
  H        13.3763229113       11.6312247911        9.1962582132
  H        50.3229329734       22.7484586471       11.9816432269
  H        49.3197615146       24.6229022796       10.6756565371
  H        45.6423858289       24.1613292181       12.8587290518
  H        46.6633497074       22.2904314795       14.1669972851
  H        47.6301037730       23.5759527069        9.2410297710
  H        14.8720479379        8.5882220308       12.6034853379
  H        50.2871999719       22.7025974074        4.0656106182
  H        49.2692306230       24.5754785401        5.3656085516
  H        45.6108795764       24.1096965611        3.1507636217
  H        46.6529988710       22.2543689691        1.8364724788
  H        47.6080818833       23.5519424815        6.8019075901
  H        40.6612898235       17.1525322920        3.4286195381
  H        48.6871164190       14.0949784493       15.7949256147
  H        10.6813627511       12.4664884361        4.0982532157
  H        11.6896991069       10.5245775519        5.3019467182
  H        15.3938107481       11.1593024978        3.2110002507
  H        14.3652942432       13.0877212581        1.9957522496
  H        13.3760452351       11.6222389862        6.7582477978
  H        47.9302932677       14.2181941697        1.7160818500
  H        47.7800978741       14.3736956684       14.4901696149
  H        49.0846584242       18.5529053475        2.8727075527
  H        10.4162746536       14.1342597803        0.0038276017
  H        24.4854738017        3.0252677083       11.9148851556
  H        25.6303886609        4.8825020646       10.6895248249
  H        23.2583659252        7.7532403446       12.8416185573
  H        22.1315252147        5.8861572911       14.0682710146
  H        23.8172759685        5.7893936812        9.2640324605
  H        36.3843489893       32.1791880641       11.9507205495
  H        35.2696400948       30.3496791363       10.6697415163
  H        37.5259016340       27.4350915971       12.8869832390
  H        38.6215116883       29.2771826515       14.1757748515
  H        37.0469355253       29.4372814496        9.2624035799
  H        25.7480300101        8.6073306751       12.6476544552
  H        36.4599457302       32.2356655980        4.1215889483
  H        35.3539666005       30.4124414216        5.4152717062
  H        37.5309074626       27.4850403715        3.1351347506
  H        38.6121076968       29.3197689166        1.8295608980
  H        37.0636408675       29.4573619756        6.8241527056
  H        46.1094417716       26.5877088689        3.3906528151
  H        44.6681950620       35.1161236133       15.8088265055
  H        24.4349340607        3.0396696572        4.0923103607
  H        25.5656352193        4.8788041800        5.3443635446
  H        23.1628876746        7.7677820804        3.2520310900
  H        22.0440933927        5.9165558321        1.9997277006
  H        23.7907889156        5.7921580604        6.8256265646
  H        44.9536412088       34.3902542802        1.7001862078
  H        44.9015534154       34.2066641033       14.4855672327
  H        40.6656646680       33.2089041616        2.8581220095
  H        23.1504908088        1.9576376745        0.0105957241
  H        25.8130321559       19.6585428788       11.9198154981
  H        23.6450926082       19.7017291083       10.6799246602
  H        22.3516900202       16.2155393901       12.8411453200
  H        24.5258921338       16.1846951329       14.0727980122
  H        23.7234069033       17.6671895060        9.2406166121
  H        35.1511940691       15.4849624244       11.9501805409
  H        37.2819218293       15.4449201332       10.6553373085
  H        38.6873007893       18.8471659404       12.8808329101
  H        36.5488518215       18.8674883503       14.1825684346
  H        37.2341338599       17.4462435301        9.2408062318
  H        20.3591942900       17.9795675518       12.6639983445
  H        35.2314722980       15.4447476347        4.0456686840
  H        37.3631591581       15.4120411587        5.3568422655
  H        38.7202977653       18.8845165310        3.2133674178
  H        36.5820323519       18.9035499141        1.9083531122
  H        37.2538149142       17.4488554716        6.7946689373
  H        35.1531601658       26.6777653402        3.3950237250
  H        28.5028325620       21.0755257576       15.9601373169
  H        25.7540541911       19.6247781636        4.1736793070
  H        23.5713718463       19.6800587871        5.3858248208
  H        22.2936939911       16.1831964592        3.2316645710
  H        24.4788627966       16.1497536883        2.0130565590
  H        23.7020705713       17.6511941359        6.8010742107
  H        29.0064529221       21.7164403496        1.7641353671
  H        29.1761238528       21.7312499345       14.6233209833
  H        32.1480958245       18.5777751336        2.9577349972
  H        27.3755989528       19.0287773454        0.0833674027
  H        14.8483101982       19.6455657980        4.1480613885
  H        17.0105611416       19.6896398731        5.3918657522
  H        18.3017416365       16.1855063185        3.2584225967
  H        16.1353756500       16.1568567459        2.0144026647
  H        16.9208355746       17.6902068323        6.8545057810
  H        46.0908929809       15.4561876539        4.0840321682
  H        43.9678044197       15.4202501867        5.3978527274
  H        42.5708528037       18.8521401148        3.2122706331
  H        44.6936847747       18.8625278570        1.8886272210
  H        44.0353546856       17.3686675679        6.8491462823
  H        20.2887078040       17.9211763317        3.4271200259
  H        46.0372138501       15.3931544368       12.0261917843
  H        43.9047956926       15.3440620923       10.7305071496
  H        42.5239748783       18.8010472389       12.8852628887
  H        44.6630830595       18.8369656434       14.1806413221
  H        44.0165656701       17.3397910660        9.2891161564
  H        46.1992377521       26.6825823637       12.6182145811
  H        52.7412955846       21.0627135930        0.1998260603
  H        14.8794123561       19.6740416896       11.8912670879
  H        17.0801423425       19.7473415027       10.7113999253
  H        18.3371181891       16.2321546107       12.8464644755
  H        16.1382637810       16.1824207271       14.0356134731
  H        16.9424985965       17.7075936717        9.2919204538
  H        52.3228749325       21.6734538259       14.2890452341
  H        52.0135513423       21.7023053684        1.5008286952
  H        49.0679501201       18.6080086287       13.1988696732
  H        13.2478866414       19.0161650879       15.9723362642
  H        29.9479679321       12.4517716134        4.2333175048
  H        28.8843738322       10.5176791787        5.4029024230
  H        25.2415675419       11.2050183350        3.2226108940
  H        26.3259709086       13.1260938417        2.0418394337
  H        27.1871491717       11.6624039147        6.7984979657
  H        31.0257070726       22.7381245971        4.0610508534
  H        32.0428549806       24.6141590288        5.3541170458
  H        35.6923259900       24.1566357284        3.1239608676
  H        34.6509958746       22.2909340209        1.8204419261
  H        33.7267915565       23.5517433189        6.7557820427
  H        25.6990766519        8.5971045402        3.4117792139
  H        30.9564643315       22.7083096722       11.9159425307
  H        31.9935053951       24.5609344176       10.6080921986
  H        35.6292779860       24.1034248845       12.8610691225
  H        34.5745528161       22.2499317601       14.1683678905
  H        33.7056009170       23.5359316054        9.1969592273
  H        40.5941653341       17.1024006900       12.6557175124
  H        32.5203640454       14.1516305994        0.2455090641
  H        29.9281257039       12.4779726374       11.9803764417
  H        28.8976106573       10.5817417371       10.7085154991
  H        25.1962931514       11.2069773038       12.8056818860
  H        26.2419800402       13.0959331802       14.0696657964
  H        27.1913792250       11.6719421070        9.2397599542
  H        33.3002881977       14.1926084246       14.4350200551
  H        33.4094250601       14.3884785033        1.6137036760
  H        32.0529488876       18.5179055253       13.1176595236
  H        30.2234623729       14.1908488628        0.0792552107
  H        16.1182946166        2.9633747132        4.1347641720
  H        14.9531775468        4.8204720539        5.3274989915
  H        17.3663584409        7.6859843245        3.2152846645
  H        18.5149945489        5.8183921000        2.0154481978
  H        16.7534963356        5.7395159776        6.7766513788
  H        44.8283010182       32.1402664269        3.9820323753
  H        45.9376007668       30.3413641331        5.3114607194
  H        43.6822876096       27.3782050578        3.1577534418
  H        42.5995201213       29.1900940453        1.8152036914
  H        44.2303060586       29.4366245280        6.7739886289
  H        14.8513535487        8.5463667142        3.3684536836
  H        44.9001335568       32.2338898879       11.9269659265
  H        46.0250086969       30.4128247230       10.6474310504
  H        43.7629823299       27.4839569394       12.8398167948
  H        42.6451783350       29.3176692051       14.1188608358
  H        44.2683748129       29.4703250361        9.2130975071
  H        35.0914390283       26.6086620832       12.6226330064
  H        36.6050176087       35.1339154815        0.1858434016
  H        16.1436663913        3.0128854452       11.8989391435
  H        14.9740712461        4.8562274745       10.6832084351
  H        17.3957505446        7.7472144502       12.7502978276
  H        18.5428384189        5.8932975939       13.9779469861
  H        16.7645150357        5.7553870837        9.2142041814
  H        36.2782962483       34.4825282621       14.2679875449
  H        36.3805112211       34.2093762616        1.5050672042
  H        40.5800957614       33.2023662792       13.1483941592
  H        17.4707810181        1.9474648799       15.9689914011
  H        28.7631159261       19.0274082512        4.3573881656
  H        29.7522611102       19.8436474089       11.6417744682
  H        32.3685981894       16.2725749996       11.8256918225
  H        30.9817998314       15.4192804298        4.3189897912
  H        28.3341363851       17.3518715357        6.8134093935
  H        29.4126527875       15.2998547736        6.6366683808
  H        31.5201338706       20.1571379432        9.3422227504
  H        32.9268352841       17.7604702924        9.2582198916
  H        28.7467505887       17.5061932026       10.9275719591
  H        18.8532586421        0.8689335921        4.3404021253
  H        40.5278535870       35.2291019816       11.9469977986
  H        42.3237534918       34.4186490464       11.5854943103
  H        22.0877180075        0.6920188791        4.3566883084
  H        11.5967842547       18.7130742856        4.3878096199
  H        52.2649535592       18.4313183160       11.6719493188
  H        49.2553160954       16.4770170795       11.5793681349
  H        10.1501482417       15.7981887962        4.2979084360
  H        50.8502373481       17.6924097318       11.9491319826
  H        10.0461627104       17.3945253706        4.0570350729
  H        20.2145091593        0.0021686310        4.0471285217
  H        39.1834664023       36.1243647931       11.6813966256
 Ni        31.1162302662       18.1054559709       10.8242976245
 Ni        31.4046687638       16.3822574103        7.9121768366
 Ni        30.0147261576       18.9429373340        7.7435881368
 Ni        30.1815214967       17.3796728693        5.1679941440
  O        10.6499833638       14.3650816196       13.4807251505
  O        12.6131914094       14.6575241981       14.5788059424
  O        49.1482008987       16.8458888945       15.9845737413
  O        50.3503162480       20.9357397285       13.6428747774
  O        48.3486237266       20.5933527582       14.6607773078
  O        11.0517982227       17.0538552872       14.4956050414
  O        50.3210769512       20.8816312308        2.4119709793
  O        48.3467737233       20.5868590995        1.3322570612
  O        49.5439205520       18.2484335484        2.0733528366
  O        12.3592854587       18.6246805052        0.0047758791
  O        48.6932865254       14.1485870666       14.7461947293
  O         8.2099208571       14.2103830540        1.3276200664
  O        10.7354247826       14.5067658316        2.6694293989
  O        12.5718115748       14.5828153765        1.3335851182
  O        22.8445116520        2.0426330802       13.4822023269
  O        21.6057604213        3.5923878311       14.5843246097
  O        42.0581757275       34.1373585023       15.9738541813
  O        37.9818726043       33.1367594108       13.5670852388
  O        39.2185344130       31.5761937763       14.6618960120
  O        20.3083022590        1.0394260356       14.4969447422
  O        38.0246369852       33.1855995602        2.4202919179
  O        39.2196054332       31.5842059094        1.3310359508
  O        40.6522778168       33.7693998638        2.0653666908
  O        18.2555769824        1.3764529035        0.0018571538
  O        44.6222433520       35.1005049458       14.7536301446
  O        24.2053822668        0.0000377928        1.3259206157
  O        22.7529588982        2.0577323326        2.5889105923
  O        21.6243679193        3.5960723874        1.3476997650
  O        27.4938181045       18.7489987156       13.4904990190
  O        26.7629679121       16.9298172222       14.6486810792
  O        30.6424526801       19.3569413983        0.0704989607
  O        33.5571808538       16.3385600209       13.5878757096
  O        34.2768233407       18.1705701505       14.7316807762
  O        29.5721741033       17.0584939449       14.5606602151
  O        33.6233494846       16.3319236205        2.4161273418
  O        34.3040703727       18.2505474574        1.4079031187
  O        31.6513924087       18.3123069642        2.1677024576
  O        30.3226847643       15.1568308553        0.0873199523
  O        28.5553306685       21.0302186829       14.8938455608
  O        28.5121696208       20.9550141290        1.4156620285
  O        27.4575978039       18.6743482272        2.6679965534
  O        26.6925533536       16.9270372881        1.4206608463
  O        13.1486788458       18.6928985097        2.5925608121
  O        13.9193232560       16.9162103479        1.4101241239
  O        50.5965806827       19.3503201286        0.0255115096
  O        47.6835826929       16.3269868545        2.4223748226
  O        46.9527198856       18.1761443362        1.3289020743
  O        11.0699431283       17.0154750147        1.4947472539
  O        47.6759467016       16.3355130990       13.6478971713
  O        46.9285000822       18.2358448090       14.6602433703
  O        49.5688666901       18.3177078058       13.9771262494
  O        10.3187629949       15.1000944582        0.0021928391
  O        52.6707733326       21.0278700864        1.2469236622
  O        12.1468716619       20.8912185875       14.6681362064
  O        13.1082298218       18.6136401506       13.3205195438
  O        13.9572086021       16.9870189798       14.6603200691
  O        29.9898568135       14.4394217526        2.7339637047
  O        28.0879362059       14.6533518532        1.4992393498
  O        32.1449235841       16.8542497079        0.0748599258
  O        30.9658671521       20.9499000852        2.4145452827
  O        32.9456344480       20.5986565448        1.3401980910
  O        29.5690412493       17.0735847745        1.5858716275
  O        30.8736062836       20.9502743359       13.6600604829
  O        32.8769027343       20.5856323688       14.6629945834
  O        31.6765566490       18.2553992446       13.9894721335
  O        28.2633685574       18.6362769979        0.0826228574
  O        32.4938487689       14.2111997097        1.3297577579
  O        32.4082514621       14.2183986671       14.8192625376
  O        29.9141822040       14.4388796576       13.4813099632
  O        28.0371945466       14.5882295236       14.7477177680
  O        17.8892414421        1.9666443131        2.6679418431
  O        18.9562433205        3.5271489562        1.4130716487
  O        39.1685836847       34.1388248500        0.0022915521
  O        43.2802685710       33.0589618835        2.3368041971
  O        42.0346073890       31.5064356469        1.2467251462
  O        20.3176295523        1.0367671695        1.4853135240
  O        43.2760456025       33.1824497690       13.5697532106
  O        42.0053069619       31.5840458171       14.5778879668
  O        40.5789354960       33.7748875935       13.9306303942
  O        22.3672427915        1.3846059509        0.0031007127
  O        36.6727736007       35.0998039854        1.2384203133
  O        16.4455836162        0.0641656098       14.6631123831
  O        17.9364822313        2.0433646766       13.3212504206
  O        18.9190651413        3.5931513810       14.6607997841
  O        29.8155637401       18.9814584045       12.0918680762
  O        29.7005049660       19.0495796898        4.0718521430
  O        31.4241494672       16.1938343426       12.0601958506
  O        31.3865224734       16.2571284466        4.0079678725
  O        32.2800542012       17.0757112307        9.4928177564
  O        29.1854940684       17.2906037848       10.0787173389
  O        30.2428599808       15.7457310176        6.4129683674
  O        31.4625634937       18.0191256305        6.6624939162
  O        30.7538485119       19.5677903351        9.4142808794
  O        28.6840139717       18.1671340774        6.4158276535
  O        39.4567154842       35.2437401991       11.9968565953
  O        19.1412293266        0.0044985556        3.9956553462
  O        41.9696005987       35.1726935718       12.0820347864
  O        21.6912511714       -0.0693506285        3.9010260857
  O        51.3651737607       18.6142966955       12.0002961018
  O        10.7510968915       18.7471351835        3.9100398608
  O        50.0797401100       16.4127741144       12.0866162549
  O         9.5243652744       16.4830950721        3.9963148078
 Zr         9.2974945336       16.0526868818       14.1774172844
 Zr        49.8368816019       16.0066254953        1.7513469752
 Zr        22.0730879746        0.0296233564       14.1839824852
 Zr        42.4608182008       35.1532529579        1.8060191313
 Zr        29.6041174267       19.0897077594       14.2641139914
 Zr        29.5736285152       19.1752954881        1.8661559994
 Zr        11.0385431635       19.0519537943        1.8328866083
 Zr        11.0444858913       19.1548361859       14.2457325652
 Zr        31.3671973463       16.0981973663        1.8528557907
 Zr        31.3846339166       16.0139239053       14.2445355767
 Zr        18.6010333990       -0.0014888289        1.7684671205
 Zr        18.5062938971       -0.0080604501       14.2086032193
 Zr        12.3026143664       16.3236272927       15.9851907947
 Zr        48.6175900397       18.8334829052        0.0152962944
 Zr        20.3149810043        2.4732275980       15.9853058947
 Zr        40.6433284887       32.6869125466       15.9731265412
 Zr        28.3484282690       16.3404477054        0.0863031278
 Zr        32.6225411843       18.8344230230        0.0420145484
  H        32.2321598315       18.5848519856        6.4870101536
  O        30.5810944738       15.0201677356        9.7479565175
  H        30.9693795085       15.3102081532       10.6410985401
  H        30.4085785357       14.0677740190        9.8140597840
  O        32.8811067793       15.3149170723        6.6568237587
  H        33.7742207797       15.6970604130        6.6752711990
  H        32.5082395889       15.5826197028        5.7849813064
  O        27.8798285573       20.1456146401        8.0735572777
  H        27.7637257697       19.4302734409        7.3942212452
  H        27.5459098402       19.7728180937        8.9059448222
  O        30.3268664268       20.5917494242        6.3269045778
  H        30.1489981930       20.1636301856        5.4379153986
  H        29.5726293266       21.1844892629        6.4885843912
  H        29.3347452257       16.3141603054       10.0467569421
  H        32.3355365229       18.7595466493       11.3975254911
