     584
 i =       25, E =     -4846.5816724560
  C        11.8588205465       14.0537001830       13.7362507126
  C        12.4561709392       12.8904501788       13.0183363942
  C        11.7045225792       12.1716327506       12.0765520725
  C        12.2808679435       11.1093787677       11.3842495794
  C        13.6214664678       10.7396211652       11.6118951741
  C        14.3546402784       11.4432362595       12.5853208537
  C        13.7818325520       12.5083145742       13.2767329364
  C        14.2611033254        9.6490068277       10.8385167886
  C        14.2562625297        9.6568900917        9.4168189293
  C        13.7432609814       10.7590957238        8.6629212456
  C        49.1269147600       21.2332128018       13.8745638152
  C        48.5502515266       22.4011602246       13.1474243583
  C        49.3002632571       23.0685133721       12.1664438462
  C        48.7332906722       24.1076282665       11.4332302488
  C        47.4027751090       24.5093142131       11.6619247684
  C        46.6718832787       23.8604667686       12.6755013431
  C        47.2343591996       22.8155803851       13.4048490823
  C        46.7723938442       25.5869311416       10.8646579224
  C        46.7616133832       25.5574164677        9.4428949134
  C        47.2612883430       24.4422094168        8.6993935970
  C        14.8604603071        8.5706864670        8.7035714749
  C        14.8917334296        8.5969909393       11.5151963247
  C        49.1134010847       21.2036276385        2.1502989904
  C        48.5279505014       22.3647754317        2.8777317416
  C        49.2672059810       23.0255889898        3.8705498356
  C        48.6908449698       24.0600844588        4.6020719155
  C        47.3604685113       24.4569144001        4.3637320851
  C        46.6401350699       23.8121575661        3.3400576702
  C        47.2137307285       22.7762977286        2.6082517464
  C        46.7221516212       25.5319693982        5.1547407568
  C        46.7334560385       25.5280849543        6.5764466726
  C        47.2492418282       24.4290372089        7.3328384858
  C        40.6338873764       17.1576831421        7.3261087324
  C        40.6521111027       17.1825463919        4.5171412520
  C        11.8831376267       14.0866583709        2.2907135887
  C        12.4723566783       12.9107192205        2.9947985966
  C        11.7148540503       12.1775059059        3.9209089700
  C        12.2814629481       11.0950550756        4.5893265866
  C        13.6203303973       10.7214492255        4.3575941715
  C        14.3583025052       11.4370577153        3.3968223646
  C        13.7928766464       12.5182425112        2.7241638457
  C        14.2538886800        9.6246439351        5.1279721777
  C        14.2527206679        9.6446548481        6.5498096850
  C        13.7426608927       10.7535234185        7.2968758852
  C        22.5127975059        3.2443434677       13.7481800297
  C        23.2301521187        4.3486220732       13.0490476979
  C        24.2270382030        4.0663733323       12.1033516400
  C        24.8571167263        5.1043440671       11.4216113365
  C        24.5067696858        6.4471258701       11.6658376382
  C        23.5379901538        6.7208066743       12.6485200510
  C        22.9031654265        5.6846034174       13.3286588461
  C        25.1155653225        7.5521995787       10.8899936317
  C        25.0834576357        7.5459417621        9.4684986218
  C        24.3785492618        6.5479484457        8.7229784928
  C        38.3036993581       31.9288683074       13.8432487338
  C        37.5781363523       30.8375405334       13.1322203602
  C        36.6218778089       31.1377603288       12.1501839838
  C        36.0098900139       30.1146699796       11.4311182324
  C        36.3385412881       28.7664086963       11.6733554848
  C        37.2649905312       28.4740160325       12.6919701119
  C        37.8814584309       29.4955572649       13.4095538254
  C        35.7407927116       27.6717154805       10.8764203884
  C        35.7758498438       27.6842876251        9.4551227798
  C        36.4812257835       28.6869302702        8.7176882175
  C        25.7077388466        8.6142490836        8.7474280465
  C        25.7178701183        8.6251993117       11.5595256635
  C        38.3289550227       31.9617160053        2.1610842511
  C        37.6089128558       30.8866516100        2.9016646111
  C        36.6829969878       31.1918233328        3.9108818580
  C        36.0767115808       30.1705131430        4.6398065853
  C        36.3821636551       28.8189505782        4.3826694252
  C        37.2850821405       28.5239061665        3.3429523096
  C        37.8935486433       29.5415643327        2.6154461972
  C        35.7798189962       27.7166808917        5.1667369367
  C        35.7950990919       27.7075291051        6.5886388323
  C        36.4900178899       28.6982919153        7.3511296916
  C        46.1358659240       26.6209345461        7.2866019509
  C        46.0879206597       26.5801785416        4.4787107632
  C        22.4605996288        3.2558377276        2.2630689692
  C        23.1546163627        4.3645604638        2.9862704453
  C        24.1577177917        4.0779403968        3.9258040003
  C        24.7857468435        5.1076659521        4.6223472303
  C        24.4306946986        6.4534983424        4.4018676126
  C        23.4507842228        6.7334617049        3.4306357542
  C        22.8180228661        5.7039706147        2.7346494837
  C        25.0623299294        7.5512200998        5.1760094342
  C        25.0576510086        7.5445938689        6.5988903611
  C        24.3640634761        6.5484714256        7.3562999569
  C        26.6271290427       17.8547320896       13.7674213506
  C        25.3138108000       17.9106923141       13.0539394318
  C        25.0582248314       18.9018166361       12.0927283744
  C        23.8435784332       18.9236430308       11.4091051437
  C        22.8536621721       17.9504674601       11.6574280822
  C        23.1090136073       16.9771177902       12.6417659610
  C        24.3255625392       16.9498400409       13.3222104751
  C        21.5793969970       17.9340201622       10.8942961032
  C        21.5786039768       17.9086271977        9.4718816060
  C        22.7838206898       17.7826998581        8.7114262525
  C        34.4214554483       17.2311463108       13.8741064497
  C        35.7175088624       17.1718691049       13.1412269827
  C        35.9209267705       16.2138781029       12.1358102672
  C        37.1088652471       16.1968174015       11.4113881226
  C        38.1211638701       17.1415439131       11.6683444682
  C        37.9225339087       18.0771240072       12.7014044033
  C        36.7321694354       18.0988714819       13.4234464058
  C        39.3783790906       17.1531415656       10.8885771292
  C        39.3756986943       17.1767793539        9.4672354578
  C        38.1697455310       17.3104906052        8.7092853405
  C        20.3318124768       17.9253900685        8.7637068657
  C        20.3543300624       17.9380439825       11.5764697805
  C        34.4557806802       17.2486411379        2.1966909125
  C        35.7633412990       17.1709218512        2.9158105508
  C        35.9854445204       16.1907468561        3.8953769557
  C        37.1755834234       16.1786392750        4.6191597862
  C        38.1708184837       17.1485676421        4.3883154980
  C        37.9543372534       18.1064331001        3.3803158196
  C        36.7630831020       18.1234355212        2.6589642723
  C        39.4205432106       17.1724894898        5.1808410221
  C        39.3978660574       17.1877354045        6.6016235391
  C        38.1806719626       17.3120442850        7.3428147556
  C        35.1684395691       26.6263376579        7.2928401683
  C        35.1881194126       26.6468392997        4.4836171641
  C        26.5727701916       17.8141530918        2.3423163493
  C        25.2531415688       17.8742010278        3.0340041879
  C        24.9933107339       18.8709370757        3.9869032875
  C        23.7752059798       18.8974157178        4.6594942399
  C        22.7902462498       17.9209549867        4.4099957798
  C        23.0467911401       16.9444048429        3.4304227174
  C        24.2662191524       16.9150585317        2.7574288428
  C        21.5271340008       17.9020684017        5.1826391378
  C        21.5525470648       17.8901766753        6.6039547042
  C        22.7713208038       17.7733367331        7.3452589728
  C        14.0467350641       17.8287579201        2.2940892541
  C        15.3508385330       17.8845809208        3.0201258634
  C        15.6070556791       18.8857691866        3.9700156469
  C        16.8157677399       18.9054292171        4.6634475122
  C        17.8028488310       17.9268713637        4.4288711517
  C        17.5515817959       16.9499680294        3.4468618875
  C        16.3422229852       16.9257020205        2.7552159687
  C        19.0717590937       17.9086302985        5.1981152402
  C        19.0713522706       17.9039392735        6.6206346616
  C        17.8645984878       17.8036123295        7.3819970190
  C        46.8064213212       17.2202088896        2.1646683128
  C        45.5186081388       17.1652592254        2.9134724939
  C        45.3111730378       16.1921578105        3.9030490440
  C        44.1306694041       16.1824591538        4.6411242487
  C        43.1287841109       17.1451747802        4.4100682905
  C        43.3340453083       18.0978091227        3.3940793217
  C        44.5149651070       18.1117646914        2.6570989425
  C        41.8756351607       17.1640695324        5.1973717509
  C        41.8811660129       17.1659262877        6.6190319052
  C        43.0899567890       17.2555806465        7.3790272785
  C        20.3181408850       17.9151916363        7.3289866287
  C        20.2955535950       17.8908366071        4.5154258546
  C        46.7855214928       17.2311370748       13.8851331851
  C        45.4813403142       17.1269539919       13.1719553295
  C        45.2614435999       16.1323709306       12.2072495245
  C        44.0733012560       16.1113442913       11.4811152574
  C        43.0766313734       17.0810845740       11.7037311829
  C        43.2860866162       18.0432856817       12.7090753965
  C        44.4752986045       18.0713964147       13.4299797471
  C        41.8317335634       17.1124031647       10.9057492721
  C        41.8588087267       17.1377411027        9.4851274279
  C        43.0791205118       17.2399321247        8.7455437335
  C        46.1531205122       26.6370309319        8.7211583846
  C        46.1625444935       26.6561073311       11.5308012890
  C        14.0459665892       17.8317906666       13.7035417339
  C        15.3672921832       17.9057300159       13.0132985173
  C        15.6405928684       18.9193835410       12.0827061664
  C        16.8698786218       18.9558834386       11.4282139745
  C        17.8540182897       17.9784115578       11.6788696516
  C        17.5873250181       16.9938283374       12.6476148968
  C        16.3600575634       16.9565403339       13.3055328629
  C        19.1214322308       17.9526165335       10.9098821273
  C        19.0967938312       17.9251537198        9.4884565953
  C        17.8771070581       17.8125914765        8.7480027742
  C        28.8019688519       14.0947896166        2.4011511456
  C        28.1959748466       12.9133929220        3.0782338214
  C        28.9170618882       12.1795193625        4.0319303265
  C        28.3193262616       11.1023804931        4.6811179191
  C        26.9830484171       10.7435502866        4.4115570326
  C        26.2814242119       11.4638592174        3.4282576270
  C        26.8757870515       12.5417476169        2.7775992964
  C        26.3151084731        9.6632225633        5.1723049316
  C        26.3064529193        9.6883758979        6.5931958770
  C        26.8126715920       10.8006317221        7.3380635438
  C        32.1800359996       21.2323590643        2.1556158980
  C        32.7744709791       22.4007954109        2.8692063264
  C        32.0364359771       23.0677798607        3.8588202350
  C        32.6114703661       24.1074706846        4.5829243730
  C        33.9421411923       24.5019468040        4.3447274296
  C        34.6630227381       23.8510376320        3.3255823215
  C        34.0906879361       22.8072708438        2.6013162998
  C        34.5770486972       25.5749051609        5.1434246762
  C        34.5758361414       25.5427716253        6.5651666338
  C        34.0706148951       24.4261346478        7.3035342181
  C        25.6969637653        8.6111993976        7.3129066603
  C        25.6772329093        8.6131618206        4.4991836993
  C        32.1075241213       21.2179146656       13.8672820896
  C        32.6988436886       22.3733758096       13.1302766557
  C        31.9741831030       23.0233208417       12.1191215973
  C        32.5586552156       24.0532379260       11.3854210753
  C        33.8853962889       24.4549775539       11.6365193406
  C        34.5946881089       23.8144653666       12.6705524157
  C        34.0154164275       22.7786012349       13.3987149531
  C        34.5293272176       25.5352620665       10.8539099521
  C        34.5507160704       25.5233611696        9.4320209331
  C        34.0575465158       24.4177406063        8.6701204637
  C        40.6225042506       17.1477995848        8.7600637977
  C        40.6005207399       17.1365069711       11.5696662122
  C        28.7498282522       14.0737162902       13.8076749785
  C        28.1470300990       12.9230948236       13.0694553759
  C        28.8875404017       12.2201241936       12.1058191588
  C        28.3082493763       11.1613368700       11.4087954587
  C        26.9720761313       10.7804069326       11.6495725154
  C        26.2493058514       11.4711132041       12.6399247204
  C        26.8265308892       12.5308625301       13.3368042482
  C        26.3294697558        9.6870355595       10.8803250923
  C        26.3156253311        9.7004442947        9.4588379247
  C        26.8157629668       10.8072706830        8.7036910340
  C        18.1355653326        3.1810252189        2.3223933833
  C        17.4060761560        4.2782606686        3.0208041676
  C        16.3904162180        3.9999279813        3.9484035128
  C        15.7427048683        5.0399420216        4.6118677561
  C        16.0946786307        6.3836596391        4.3722356742
  C        17.0840235368        6.6531284442        3.4084128588
  C        17.7331720526        5.6157755392        2.7434417512
  C        15.4703280362        7.4913424113        5.1352782760
  C        15.4856390698        7.4906191415        6.5569910329
  C        16.1871178259        6.4969615008        7.3101720319
  C        42.9458734013       31.8595341985        2.0780827165
  C        43.6463655897       30.7719066353        2.8219382965
  C        44.5919303632       31.0932220027        3.8079742483
  C        45.1976734300       30.0876780359        4.5556133096
  C        44.8711047740       28.7346288074        4.3408985264
  C        43.9452731661       28.4202886992        3.3276906872
  C        43.3364129288       29.4254230148        2.5796800054
  C        45.4889479787       27.6554165062        5.1440039154
  C        45.4926267410       27.6807501350        6.5657005979
  C        44.8059076267       28.6890365570        7.3123353154
  C        14.8565916301        8.5630647814        7.2693521475
  C        14.8751649298        8.5631615443        4.4566622746
  C        42.9465602265       31.9614613968       13.8039622027
  C        43.6916601942       30.8853800306       13.0903120425
  C        44.6564159957       31.1913100134       12.1181819134
  C        45.2779541821       30.1717096414       11.4004863582
  C        44.9540839054       28.8213982132       11.6380040898
  C        44.0203782196       28.5237372775       12.6485818940
  C        43.3920768086       29.5404864330       13.3607423400
  C        45.5629793758       27.7239361003       10.8527245792
  C        45.5335558610       27.7174321730        9.4314228953
  C        44.8269174259       28.7074754762        8.6785255051
  C        35.1562830030       26.6159846849        8.7276153508
  C        35.1357850401       26.5964066001       11.5370634340
  C        18.1487677143        3.2469638216       13.7013491226
  C        17.4299148053        4.3437866025       12.9923406157
  C        16.4147626891        4.0525393870       12.0686871524
  C        15.7664058703        5.0831606870       11.3933266106
  C        16.1210881187        6.4283964431       11.6160323270
  C        17.1124730671        6.7117751633       12.5732859915
  C        17.7601771389        5.6828621206       13.2530138536
  C        15.4906646122        7.5241293795       10.8435878859
  C        15.4964529981        7.5074465448        9.4224557797
  C        16.1933319389        6.5058113278        8.6757773875
  H        10.6723299197       12.4656085595       11.8996433490
  H        11.6945650822       10.5508019639       10.6577938602
  H        15.3917140525       11.1687516078       12.7669702702
  H        14.3512784182       13.0715770853       14.0121493831
  H        13.3760972278       11.6311273935        9.1962801027
  H        50.3229535130       22.7484338239       11.9816653773
  H        49.3198145224       24.6228991265       10.6756870872
  H        45.6424362477       24.1613453554       12.8587395883
  H        46.6633625779       22.2904027915       14.1669952493
  H        47.6300572609       23.5759281345        9.2410740278
  H        14.8720501963        8.5882416952       12.6035041854
  H        50.2871955902       22.7026286557        4.0655677962
  H        49.2692612826       24.5755126786        5.3655744871
  H        45.6108055394       24.1095799107        3.1508888400
  H        46.6529308366       22.2542292460        1.8366110518
  H        47.6079671587       23.5518960875        6.8019403173
  H        40.6594837902       17.1466416097        3.4294300402
  H        48.6870774145       14.0949224495       15.7949189784
  H        10.6813240729       12.4664388001        4.0982066350
  H        11.6896381094       10.5245460503        5.3019070311
  H        15.3937826357       11.1592910773        3.2109870911
  H        14.3652254185       13.0877052864        1.9957161243
  H        13.3758501159       11.6221552626        6.7582565788
  H        47.9303150317       14.2177486450        1.7162141987
  H        47.7800068753       14.3731239979       14.4900060647
  H        49.0845199623       18.5528514313        2.8727352110
  H        10.4161408274       14.1342874392        0.0038161006
  H        24.4851116720        3.0270563468       11.9125775029
  H        25.6299642324        4.8844091912       10.6882593974
  H        23.2598656135        7.7545122125       12.8432223936
  H        22.1330500835        5.8872488232       14.0689507970
  H        23.8171520636        5.7917883863        9.2639598479
  H        36.3835419307       32.1801717538       11.9522068919
  H        35.2680300467       30.3508251814       10.6714115602
  H        37.5263537721       27.4358175415       12.8860325139
  H        38.6226705056       29.2777473881       14.1748052499
  H        37.0459830068       29.4371335295        9.2635195360
  H        25.7540601444        8.6075962480       12.6472681367
  H        36.4594055505       32.2351910595        4.1217219775
  H        35.3535052963       30.4122405391        5.4155354512
  H        37.5325654302       27.4845533216        3.1374811523
  H        38.6135933595       29.3191202958        1.8317715307
  H        37.0630422069       29.4565241751        6.8252104572
  H        46.1095513377       26.5877250949        3.3906817416
  H        44.6683007096       35.1161762045       15.8087814525
  H        24.4361671478        3.0397226638        4.0918082059
  H        25.5674685842        4.8786239716        5.3434669922
  H        23.1650172277        7.7679337114        3.2511627889
  H        22.0455219883        5.9169610926        1.9993469301
  H        23.7916842300        5.7931298576        6.8255780939
  H        44.9540780737       34.3906169058        1.7003735207
  H        44.9020438125       34.2069204221       14.4854490265
  H        40.6659331055       33.2090051008        2.8582163137
  H        23.1505697005        1.9576347143        0.0104283105
  H        25.8184912570       19.6578867756       11.9082023052
  H        23.6472561343       19.7026708851       10.6752880327
  H        22.3571628057       16.2166003121       12.8427043247
  H        24.5338139439       16.1869309146       14.0686976873
  H        23.7243454978       17.6633990607        9.2412531383
  H        35.1379781326       15.4876256201       11.9313416173
  H        37.2678781098       15.4465665200       10.6400053498
  H        38.6973382975       18.8129160820       12.9066213601
  H        36.5589479121       18.8347271324       14.2052267331
  H        37.2313682830       17.4409158755        9.2405512817
  H        20.3609724844       17.9811185493       12.6642282002
  H        35.2120143661       15.4492932282        4.0841585598
  H        37.3496959186       15.4136112631        5.3729466142
  H        38.7156084404       18.8623177921        3.1962811334
  H        36.5769906956       18.8800370747        1.9003761038
  H        37.2510371979       17.4430271583        6.7964661430
  H        35.1547455731       26.6758539928        3.3961497857
  H        28.5019548763       21.0703528724       15.9624003735
  H        25.7528823329       19.6258932152        4.1757907482
  H        23.5731229570       19.6786656830        5.3892074018
  H        22.2935627959       16.1845801228        3.2320086212
  H        24.4794193329       16.1499191647        2.0147773090
  H        23.7027780345       17.6469465946        6.8014613619
  H        29.0199785183       21.7101242311        1.7549104863
  H        29.1750353946       21.7310761588       14.6259960729
  H        32.1057521353       18.5574458344        2.9909647211
  H        27.3768761754       19.0288796558        0.0854911622
  H        14.8485505427       19.6443967471        4.1496767111
  H        17.0106397685       19.6880957452        5.3935069375
  H        18.3031814583       16.1865366158        3.2564832113
  H        16.1367765843       16.1582015950        2.0127815060
  H        16.9221711449       17.6862210697        6.8549783562
  H        46.0918349250       15.4578105147        4.0872734499
  H        43.9690210859       15.4206455926        5.4005833367
  H        42.5685253995       18.8493255650        3.2125128877
  H        44.6911781305       18.8613230174        1.8892257275
  H        44.0324734817       17.3684484050        6.8508810239
  H        20.2899738689       17.9231501332        3.4273582535
  H        46.0375461770       15.3920487235       12.0269235590
  H        43.9048530695       15.3406882458       10.7320473727
  H        42.5205317266       18.7954474865       12.8877185844
  H        44.6599168802       18.8341688048       14.1823630702
  H        44.0134442209       17.3384838419        9.2906644125
  H        46.1994204313       26.6826376777       12.6182466188
  H        52.7413231064       21.0626907271        0.1998466672
  H        14.8797593477       19.6722630862       11.8887715436
  H        17.0806159384       19.7449293659       10.7095168624
  H        18.3383873219       16.2327213184       12.8489077963
  H        16.1392508431       16.1833162132       14.0373475039
  H        16.9440383117       17.7029685961        9.2924394028
  H        52.3229316750       21.6734792972       14.2889896173
  H        52.0135919002       21.7023536052        1.5008541150
  H        49.0677351595       18.6078514883       13.1989083964
  H        13.2478165354       19.0162007926       15.9722471522
  H        29.9482833230       12.4562874748        4.2403162497
  H        28.8823133567       10.5275688843        5.4133771984
  H        25.2489989124       11.1964946334        3.2127016331
  H        26.3326768443       13.1175177078        2.0322145812
  H        27.1743256310       11.6695490111        6.7967229370
  H        31.0154455743       22.7500818201        4.0547914809
  H        32.0346393623       24.6257994342        5.3455880433
  H        35.6928859464       24.1456336580        3.1342559094
  H        34.6516998065       22.2793129190        1.8336346352
  H        33.7138525963       23.5568256886        6.7584112417
  H        25.7053559726        8.5946919578        3.4111079479
  H        30.9510211893       22.7116837257       11.9221694271
  H        31.9873073938       24.5617489187       10.6119336174
  H        35.6211133131       24.1144277611       12.8709859258
  H        34.5677567304       22.2633979670       14.1810283524
  H        33.6921329461       23.5417222811        9.1982178904
  H        40.5927248468       17.0896690879       12.6569627171
  H        32.5139832153       14.1553140362        0.2625133981
  H        29.9232076372       12.5075095329       11.9323632765
  H        28.8911917405       10.6096139909       10.6743145978
  H        25.2163424919       11.1892361257       12.8334588528
  H        26.2649682229       13.0797598869       14.0891141149
  H        27.1773134946       11.6810068916        9.2377048101
  H        33.3017446719       14.1957831457       14.4337522850
  H        33.4068499441       14.4003132965        1.6137078299
  H        32.0450929796       18.5101168646       13.1343507689
  H        30.2307509315       14.1927772376        0.0764734499
  H        16.1182774673        2.9634261916        4.1347262101
  H        14.9531891979        4.8205351318        5.3274501508
  H        17.3664614148        7.6860083241        3.2153316058
  H        18.5150987489        5.8184161687        2.0154745845
  H        16.7536329655        5.7396073276        6.7766459808
  H        44.8283469415       32.1402807931        3.9820940524
  H        45.9376211920       30.3414088419        5.3114860004
  H        43.6825281807       27.3782257395        3.1576251241
  H        42.5997638130       29.1900913204        1.8150481943
  H        44.2304524790       29.4367141317        6.7740134391
  H        14.8513539081        8.5463872346        3.3684427382
  H        44.9001564639       32.2339703630       11.9268831372
  H        46.0250275618       30.4129120594       10.6474048042
  H        43.7633330760       27.4840179237       12.8400719057
  H        42.6454980122       29.3177113276       14.1191158703
  H        44.2685408699       29.4704571587        9.2131088322
  H        35.0897782143       26.6115938829       12.6243708955
  H        36.6050418704       35.1340027771        0.1858370551
  H        16.1435899128        3.0129743997       11.8990223723
  H        14.9740310140        4.8563210866       10.6832918115
  H        17.3959452731        7.7472520963       12.7501795199
  H        18.5430239910        5.8933146677       13.9778010581
  H        16.7646569852        5.7554739509        9.2141967314
  H        36.2782285460       34.4827256055       14.2679276319
  H        36.3805590745       34.2093531799        1.5050270622
  H        40.5804970367       33.2026037582       13.1483133825
  H        17.4708551658        1.9476431827       15.9690078507
  H        28.7481180160       18.9891147237        4.3267640222
  H        29.8015593259       19.7041242404       11.5770175921
  H        32.2877410433       16.2541843259       11.7611498863
  H        30.9722930529       15.4511118516        4.4320126939
  H        28.4833378506       17.3695851429        7.0044623143
  H        29.4167533608       15.2462583086        6.4910779017
  H        31.5386758091       19.8763435381        9.5270056802
  H        32.5404999316       17.7823283248        9.1716916555
  H        28.3830983999       17.0307909235        9.2101511238
  H        18.8533048760        0.8689261511        4.3403859539
  H        40.5277307450       35.2289366644       11.9469098781
  H        42.3242653263       34.4190242350       11.5851931758
  H        22.0877426568        0.6917559742        4.3568610685
  H        11.5968227816       18.7131099399        4.3877948040
  H        52.2649279445       18.4311667046       11.6719966300
  H        49.2549604038       16.4768526563       11.5793570591
  H        10.1501817745       15.7980739681        4.2979424508
  H        50.8500263500       17.6924866248       11.9491155545
  H        10.0462098860       17.3946594008        4.0569895203
  H        20.2146733263        0.0022039169        4.0470788968
  H        39.1834338041       36.1241571040       11.6813418989
 Ni        30.9735516618       17.9402462885       10.9208883808
 Ni        31.1214260626       16.3495567175        8.2709810993
 Ni        29.8109755363       18.8247246913        8.0145845707
 Ni        29.9759514426       17.3549093801        5.2180069024
  O        10.6498727301       14.3649401498       13.4807673368
  O        12.6130764994       14.6573998351       14.5789547788
  O        49.1478501076       16.8458106987       15.9846462173
  O        50.3502905874       20.9357185219       13.6428881520
  O        48.3485244325       20.5933492138       14.6607615507
  O        11.0517004082       17.0538324812       14.4956902523
  O        50.3210587670       20.8815790286        2.4120750491
  O        48.3466213586       20.5868450887        1.3324019304
  O        49.5435798659       18.2483767498        2.0732802041
  O        12.3592544449       18.6246252169        0.0048310801
  O        48.6932869163       14.1485840402       14.7461969360
  O         8.2099199421       14.2104342829        1.3276856995
  O        10.7353889715       14.5066048098        2.6694247983
  O        12.5716879751       14.5827823693        1.3334347903
  O        22.8445915694        2.0430835543       13.4819357531
  O        21.6059646778        3.5928275206       14.5839927495
  O        42.0582932698       34.1374902644       15.9738082738
  O        37.9819108499       33.1369811811       13.5670831978
  O        39.2186999744       31.5764634795       14.6618120009
  O        20.3083697832        1.0393957562       14.4970325306
  O        38.0243233841       33.1852172450        2.4204447209
  O        39.2193757420       31.5840497184        1.3310296664
  O        40.6522074154       33.7693561203        2.0653785230
  O        18.2555192259        1.3764425573        0.0019189436
  O        44.6222135051       35.1005577349       14.7536208329
  O        24.2053181806        0.0000038276        1.3258973508
  O        22.7531467245        2.0578432386        2.5888077514
  O        21.6246574025        3.5960903686        1.3478098566
  O        27.4962822210       18.7553011794       13.4990511624
  O        26.7672750863       16.9358314808       14.6499915207
  O        30.6415125388       19.3518525707        0.0768993216
  O        33.5488071033       16.3352687790       13.5858736943
  O        34.2759116982       18.1649596705       14.7333820902
  O        29.5766096058       17.0568638857       14.5621030812
  O        33.5833554963       16.3392364638        2.4316144395
  O        34.3009875110       18.2412943179        1.4067473073
  O        31.6467018519       18.3053781491        2.1722686663
  O        30.3102515566       15.1616565185        0.0886794000
  O        28.5569151343       21.0277457239       14.8959286476
  O        28.5147551792       20.9493793912        1.4205087447
  O        27.4562166294       18.6811210798        2.6654088408
  O        26.6906616569       16.9337928175        1.4168588607
  O        13.1487555431       18.6927699496        2.5927516927
  O        13.9193820947       16.9161515494        1.4102908566
  O        50.5965869080       19.3503121742        0.0255587226
  O        47.6833762479       16.3272526696        2.4226650384
  O        46.9524669168       18.1761587698        1.3293237734
  O        11.0698349264       17.0154769846        1.4946071322
  O        47.6755653032       16.3356019856       13.6479486742
  O        46.9278477346       18.2358097702       14.6600917890
  O        49.5686968883       18.3176885889       13.9771801093
  O        10.3186314452       15.1001282482        0.0022425148
  O        52.6706672666       21.0277895635        1.2469294439
  O        12.1468163662       20.8912281203       14.6681507919
  O        13.1081771641       18.6133041541       13.3204115046
  O        13.9572502308       16.9870572951       14.6601303119
  O        29.9954647255       14.4295860731        2.7264737144
  O        28.0879136069       14.6464070507        1.4945887108
  O        32.1318545378       16.8559962931        0.0838146998
  O        30.9623632663       20.9430168674        2.4160393208
  O        32.9393047737       20.5997411624        1.3389612673
  O        29.5663233552       17.0742782022        1.5839088270
  O        30.8698132239       20.9535540817       13.6674951936
  O        32.8751806138       20.5887108132       14.6683614221
  O        31.6782260243       18.2529857711       14.0009250264
  O        28.2629620018       18.6330175502        0.0832410821
  O        32.4908694078       14.2145242057        1.3365266358
  O        32.4103210649       14.2192052360       14.8177566135
  O        29.9215134931       14.4470591335       13.4766101865
  O        28.0416644466       14.5847163950       14.7466068875
  O        17.8891806258        1.9666556887        2.6678184458
  O        18.9562255882        3.5270738543        1.4129875257
  O        39.1684977229       34.1387690813        0.0022257405
  O        43.2802664853       33.0589889137        2.3368126253
  O        42.0346464477       31.5063390255        1.2467194958
  O        20.3176936497        1.0368323882        1.4851915206
  O        43.2758299577       33.1825243239       13.5697070378
  O        42.0052080877       31.5839844642       14.5777735027
  O        40.5787368409       33.7747606411       13.9308076960
  O        22.3673402439        1.3845499841        0.0034159812
  O        36.6728784421       35.0997615334        1.2384158516
  O        16.4457166031        0.0641652724       14.6631442356
  O        17.9363337486        2.0433721469       13.3213280903
  O        18.9190212140        3.5930546762       14.6609225164
  O        29.9201974303       18.9030449902       12.1316838143
  O        29.6856094367       18.9034485916        4.0725811620
  O        31.3472384303       16.3395411744       12.0098470063
  O        31.1565569545       16.3539003047        4.0818590040
  O        32.1481795100       17.0663313154        9.7134323967
  O        29.3033024520       17.2905544314        9.0100061385
  O        30.1993786776       15.8408356174        6.4794223829
  O        31.5834608327       17.8178047571        7.1006953453
  O        30.7035639748       19.4001738049        9.6899543199
  O        28.7882897532       18.1474404889        6.4936288183
  O        39.4566071873       35.2435265973       11.9968773769
  O        19.1413225522        0.0044926651        3.9956578428
  O        41.9695237545       35.1726175485       12.0819892576
  O        21.6911811286       -0.0694055875        3.9009235691
  O        51.3651398134       18.6142343310       12.0002833777
  O        10.7511580447       18.7471186856        3.9099804545
  O        50.0793251692       16.4127523182       12.0867053042
  O         9.5246213993       16.4831741625        3.9963183546
 Zr         9.2972602773       16.0526315174       14.1774484423
 Zr        49.8367273483       16.0065628876        1.7514418990
 Zr        22.0732824783        0.0298929962       14.1839418150
 Zr        42.4609251566       35.1533262808        1.8060116529
 Zr        29.6026117551       19.0889391106       14.2716408352
 Zr        29.5716889309       19.1606421109        1.8659286617
 Zr        11.0385268944       19.0518524010        1.8328656386
 Zr        11.0444475699       19.1548061841       14.2458787073
 Zr        31.3369453647       16.0954521325        1.8893813340
 Zr        31.3861375407       16.0192831434       14.2739326155
 Zr        18.6011661972       -0.0013429479        1.7684721456
 Zr        18.5063779505       -0.0076750475       14.2086338696
 Zr        12.3025044171       16.3236976099       15.9851794368
 Zr        48.6173024713       18.8334299030        0.0152955481
 Zr        20.3152372943        2.4733823800       15.9851926274
 Zr        40.6436945930       32.6870539393       15.9732897052
 Zr        28.3394510570       16.3378415125        0.0843648141
 Zr        32.6237361791       18.8355601383        0.0504657785
  H        32.4386595689       18.2789559681        7.1331870264
  O        30.8760383397       14.7210688737        9.6861276330
  H        30.9366446569       15.2106422088       10.5517620868
  H        30.0736138272       14.1748466116        9.7263488075
  O        32.9008623436       15.1527417636        6.8820383447
  H        33.6615583208       15.7259837077        7.0883983896
  H        32.4428384253       15.6915010391        6.1852942333
  O        27.5713003953       20.3367790331        8.0473176756
  H        27.6501835761       19.5669405986        7.4277323331
  H        27.4496129797       19.8650257800        8.9047506952
  O        30.3273922835       20.5083954470        6.5477613359
  H        30.2533065245       20.0481225622        5.6767587249
  H        29.5683775786       21.1121445783        6.6003459784
