     583
 i =      210, E =     -4830.6372121127
  C        11.8582151609       14.0534980798       13.7365477829
  C        12.4556340324       12.8902621459       13.0184551129
  C        11.7041816105       12.1720128267       12.0760999636
  C        12.2804917025       11.1097993683       11.3836727966
  C        13.6207652627       10.7392974017       11.6119956006
  C        14.3535523582       11.4420011346       12.5864067850
  C        13.7807324134       12.5069483753       13.2780199268
  C        14.2604417725        9.6487794923       10.8385361410
  C        14.2560834865        9.6568712592        9.4168253199
  C        13.7426196780       10.7588179973        8.6628584140
  C        49.1264877686       21.2332706106       13.8745974910
  C        48.5497983548       22.4010406536       13.1474284430
  C        49.3000371458       23.0687974361       12.1668697874
  C        48.7330584424       24.1078900866       11.4336725592
  C        47.4022929060       24.5090449473       11.6618683604
  C        46.6710684761       23.8596101126       12.6747990021
  C        47.2335396562       22.8147316909       13.4041456981
  C        46.7721598809       25.5868179115       10.8646108275
  C        46.7614171191       25.5573522629        9.4428531194
  C        47.2612316667       24.4421909646        8.6993854786
  C        14.8602686628        8.5706631429        8.7035545316
  C        14.8912696184        8.5968224625       11.5151582741
  C        49.1129378614       21.2034468033        2.1504031463
  C        48.5275317750       22.3645847225        2.8776957465
  C        49.2670244900       23.0259348316        3.8700067308
  C        48.6906188903       24.0604131246        4.6014769741
  C        47.3598977718       24.4565106159        4.3638179813
  C        46.6390957525       23.8108074821        3.3410955273
  C        47.2127009189       22.7749239002        2.6093243484
  C        46.7215949006       25.5316125816        5.1547855632
  C        46.7335721150       25.5281213369        6.5764741566
  C        47.2489790087       24.4288894047        7.3328372079
  C        40.6224099681       17.1292871616        7.3100580628
  C        40.6372409717       17.1280771314        4.5005943112
  C        11.8826927950       14.0865076045        2.2905093982
  C        12.4719205294       12.9103974380        2.9945047876
  C        11.7145471310       12.1777028473        3.9211200119
  C        12.2810241838       11.0952003040        4.5895846908
  C        13.6196079108       10.7209097157        4.3573228474
  C        14.3573005681       11.4357672527        3.3957432101
  C        13.7919770680       12.5169611799        2.7229968747
  C        14.2533899989        9.6243605848        5.1278668420
  C        14.2522545468        9.6444627118        6.5497193927
  C        13.7421383722       10.7532958449        7.2968083258
  C        22.5128716849        3.2445086434       13.7484028794
  C        23.2298249482        4.3494893473       13.0501042656
  C        24.2269551333        4.0683815812       12.1043411816
  C        24.8563152402        5.1071464740       11.4231409769
  C        24.5045027966        6.4494748252       11.6676002442
  C        23.5357722314        6.7221395078       12.6506147430
  C        22.9016621945        5.6851345753       13.3301515338
  C        25.1115314968        7.5552370340       10.8913957020
  C        25.0791109443        7.5493706806        9.4699685035
  C        24.3724995454        6.5518202367        8.7257317380
  C        38.3029805180       31.9294600478       13.8437518142
  C        37.5745060781       30.8395612096       13.1338064852
  C        36.6168921973       31.1424408432       12.1538611744
  C        36.0012357143       30.1213589041       11.4353343598
  C        36.3282094675       28.7723931660       11.6755206082
  C        37.2561318080       28.4770342987       12.6919115005
  C        37.8761405211       29.4968066483       13.4090087695
  C        35.7270690319       27.6799055148       10.8784708424
  C        35.7592546297       27.6940063435        9.4572113673
  C        36.4661158891       28.6956565346        8.7199599028
  C        25.7021543637        8.6183081325        8.7485706599
  C        25.7139454349        8.6279348182       11.5606201989
  C        38.3287712395       31.9620341271        2.1611332713
  C        37.6073748788       30.8884823602        2.9025120741
  C        36.6804274609       31.1964731538        3.9100033860
  C        36.0712136114       30.1773388338        4.6393601015
  C        36.3746226543       28.8249018053        4.3845813070
  C        37.2789631472       28.5269401519        3.3468827026
  C        37.8904059604       29.5425470667        2.6188807421
  C        35.7678505954       27.7251698941        5.1686996952
  C        35.7802278692       27.7170376636        6.5906501762
  C        36.4757582752       28.7069980920        7.3534467435
  C        46.1358094186       26.6209011778        7.2865763415
  C        46.0875411206       26.5798661650        4.4786802713
  C        22.4599168438        3.2556876888        2.2632665959
  C        23.1517889606        4.3645484727        2.9878734893
  C        24.1521549009        4.0787637753        3.9305591892
  C        24.7783172687        5.1090866777        4.6278142600
  C        24.4243352717        6.4548067193        4.4046565561
  C        23.4467939480        6.7338253328        3.4307683201
  C        22.8158543924        5.7037369272        2.7341882682
  C        25.0553841020        7.5530648726        5.1781850232
  C        25.0511910101        7.5472589980        6.6010355622
  C        24.3574851703        6.5517362861        7.3591174069
  C        26.6244236375       17.8604056421       13.7803222432
  C        25.3195319379       17.9019592839       13.0454366839
  C        25.0255472324       18.9458991628       12.1502298084
  C        23.8145512947       18.9599090621       11.4568185198
  C        22.8575140732       17.9429896910       11.6465752617
  C        23.1474341040       16.9212410927       12.5708663458
  C        24.3616901092       16.8952623623       13.2547418591
  C        21.5815633415       17.9341914343       10.8852430149
  C        21.5835406167       17.9329781393        9.4633649629
  C        22.7911810769       17.8360809249        8.7019485530
  C        34.4200856925       17.2245595205       13.8751201936
  C        35.7155450845       17.1682115724       13.1405431826
  C        35.9109506851       16.2186103381       12.1255937930
  C        37.0976476645       16.2006242936       11.3988052225
  C        38.1191913388       17.1342198145       11.6623439843
  C        37.9259016941       18.0629425175       12.7031383499
  C        36.7385010260       18.0839317196       13.4306974723
  C        39.3738682436       17.1453867610       10.8766948912
  C        39.3680054764       17.1616363592        9.4542960490
  C        38.1612025568       17.2859769775        8.6961715758
  C        20.3358040523       17.9441978853        8.7567295159
  C        20.3585999103       17.9229957611       11.5707851592
  C        34.4491874639       17.2358095058        2.1865853620
  C        35.7529740544       17.1311738883        2.8998678814
  C        35.9517255153       16.1690853019        3.9018938903
  C        37.1417593033       16.1534880781        4.6259559339
  C        38.1591764847       17.0918132453        4.3685761428
  C        37.9673558474       18.0226537740        3.3291877302
  C        36.7774152578       18.0476879204        2.6089297443
  C        39.4057294416       17.1195195539        5.1654585527
  C        39.3844308214       17.1467365927        6.5871527238
  C        38.1684517784       17.2750101963        7.3296241320
  C        35.1501562205       26.6376196111        7.2947563998
  C        35.1761859411       26.6554301057        4.4857885611
  C        26.5728152424       17.8254361190        2.3291380158
  C        25.2562774067       17.8816032972        3.0298276086
  C        24.9837166325       18.9064386390        3.9484108477
  C        23.7654183934       18.9384116888        4.6210276856
  C        22.7913372232       17.9450786685        4.3985464335
  C        23.0569068675       16.9453893833        3.4453259779
  C        24.2756072889       16.9118058520        2.7705193750
  C        21.5291403430       17.9293146611        5.1743592992
  C        21.5558240184       17.9271767720        6.5957680659
  C        22.7774087564       17.8316581005        7.3356296502
  C        14.0458265434       17.8289458164        2.2935105318
  C        15.3507436630       17.8868962417        3.0193420260
  C        15.6064108714       18.8914585805        3.9655462662
  C        16.8155864505       18.9145030068        4.6580866006
  C        17.8030629279       17.9360385783        4.4255934525
  C        17.5519046644       16.9548879224        3.4480286965
  C        16.3418743830       16.9272111573        2.7574660987
  C        19.0731991622       17.9236084470        5.1929315119
  C        19.0740818438       17.9204748186        6.6152492744
  C        17.8683363299       17.8131047007        7.3773647353
  C        46.8034915396       17.2171499310        2.1624626902
  C        45.5119139950       17.1518457741        2.9031618204
  C        45.3081167888       16.1781660571        3.8933421927
  C        44.1244675734       16.1582083278        4.6259889192
  C        43.1145529137       17.1115413549        4.3903827991
  C        43.3148882192       18.0629660329        3.3718926191
  C        44.4994078310       18.0874201621        2.6405001302
  C        41.8614768021       17.1242129219        5.1787058777
  C        41.8686406117       17.1369967026        6.6005401383
  C        43.0778650605       17.2393780577        7.3577125589
  C        20.3215541463       17.9402299057        7.3220448535
  C        20.2965956583       17.9085071351        4.5093406304
  C        46.7837243147       17.2332848166       13.8801315083
  C        45.4824766973       17.1331203298       13.1598945194
  C        45.2648301178       16.1430355348       12.1893091646
  C        44.0774877342       16.1218184474       11.4612708822
  C        43.0763896721       17.0874081039       11.6853855734
  C        43.2849982360       18.0472800348       12.6937179648
  C        44.4733961052       18.0752868320       13.4168040168
  C        41.8290948153       17.1139376966       10.8889202799
  C        41.8521159595       17.1308326654        9.4675355604
  C        43.0701837971       17.2334123282        8.7245404129
  C        46.1535467878       26.6373189433        8.7211183015
  C        46.1621640182       26.6558783110       11.5307671014
  C        14.0457640844       17.8300317545       13.7023790819
  C        15.3678675784       17.9003310638       13.0095041719
  C        15.6461579636       18.9169266172       12.0836976530
  C        16.8759266069       18.9515389493       11.4293774168
  C        17.8561681656       17.9685003747       11.6742652886
  C        17.5841576018       16.9794149240       12.6369808181
  C        16.3563986392       16.9447174936       13.2950753548
  C        19.1246774498       17.9455757980       10.9054088819
  C        19.1013858516       17.9306563925        9.4834483912
  C        17.8814088807       17.8177671598        8.7433320934
  C        28.8051998493       14.0877582445        2.3949422487
  C        28.1926628478       12.9146058056        3.0811479330
  C        28.9203722219       12.1643650067        4.0170963402
  C        28.3194298554       11.0911112749        4.6700992511
  C        26.9785404047       10.7432289786        4.4096033165
  C        26.2732876964       11.4722913234        3.4353083196
  C        26.8710080209       12.5467420029        2.7817729396
  C        26.3096763613        9.6642412938        5.1722746966
  C        26.3023174704        9.6900379610        6.5933053187
  C        26.8112245919       10.8013695226        7.3374582616
  C        32.1807106867       21.2404393398        2.1510018592
  C        32.7723125811       22.4082509714        2.8663124767
  C        32.0288110175       23.0788560356        3.8495811917
  C        32.6005901408       24.1168656377        4.5781227227
  C        33.9319475873       24.5119197882        4.3446194701
  C        34.6577197023       23.8600722541        3.3297047224
  C        34.0884383934       22.8166304893        2.6027658594
  C        34.5626631606       25.5850773832        5.1456740787
  C        34.5571790822       25.5540830776        6.5673558355
  C        34.0501472983       24.4380216993        7.3055984088
  C        25.6923209155        8.6135756392        7.3138916110
  C        25.6697232140        8.6148235052        4.5003523089
  C        32.1052541149       21.2281981717       13.8765076966
  C        32.6964031848       22.3772971759       13.1311713659
  C        31.9615116401       23.0376671528       12.1346801424
  C        32.5427034729       24.0665866553       11.3975153753
  C        33.8719566710       24.4650612926       11.6396124063
  C        34.5896403991       23.8178477414       12.6635366656
  C        34.0135312641       22.7830032420       13.3953890862
  C        34.5131153708       25.5455928654       10.8553662142
  C        34.5309032826       25.5348124066        9.4335575738
  C        34.0363827456       24.4291768437        8.6723222043
  C        40.6138883745       17.1315504958        8.7448442052
  C        40.5984699668       17.1377030764       11.5549889259
  C        28.7521760750       14.0697806755       13.8134124487
  C        28.1442770107       12.9213296953       13.0762953871
  C        28.8753574948       12.2362618110       12.0936453073
  C        28.2958212302       11.1787840766       11.3963159641
  C        26.9684294332       10.7806222794       11.6543417981
  C        26.2551323951       11.4532690501       12.6644428463
  C        26.8334273890       12.5100352569       13.3648336829
  C        26.3252148315        9.6905648392       10.8820340855
  C        26.3105205655        9.7044637886        9.4599983822
  C        26.8120950826       10.8099176698        8.7033056419
  C        18.1354694380        3.1809075431        2.3222065879
  C        17.4061516825        4.2782215118        3.0209007964
  C        16.3904719431        3.9998716867        3.9484481677
  C        15.7427734400        5.0398496249        4.6120098228
  C        16.0946712733        6.3835516283        4.3723048251
  C        17.0840120268        6.6530661655        3.4085065785
  C        17.7330897559        5.6157313095        2.7434121954
  C        15.4703319855        7.4912815480        5.1353012076
  C        15.4857413196        7.4907438958        6.5570042879
  C        16.1875915054        6.4973420651        7.3101746777
  C        42.9459158916       31.8594382170        2.0780392260
  C        43.6462378183       30.7718233725        2.8219802454
  C        44.5921352514       31.0931082015        3.8077354507
  C        45.1978533958       30.0875258313        4.5553386518
  C        44.8710880245       28.7344890028        4.3407357660
  C        43.9449219432       28.4201786698        3.3278213366
  C        43.3361196523       29.4253508992        2.5798229140
  C        45.4886894099       27.6552063987        5.1439383234
  C        45.4931347363       27.6810282199        6.5656312891
  C        44.8063050322       28.6892550920        7.3122548853
  C        14.8566405640        8.5631870664        7.2693200544
  C        14.8746350757        8.5627734218        4.4566573965
  C        42.9465122944       31.9614682611       13.8038459828
  C        43.6917439696       30.8853846232       13.0904512608
  C        44.6565968733       31.1912924789       12.1183964208
  C        45.2781127864       30.1717135560       11.4006678734
  C        44.9540599433       28.8213935318       11.6379992861
  C        44.0202595237       28.5237203747       12.6484907734
  C        43.3920172816       29.5404810026       13.3606890345
  C        45.5631150259       27.7240216957       10.8527246964
  C        45.5336970201       27.7175374530        9.4314191130
  C        44.8275766424       28.7078986542        8.6784430326
  C        35.1382226826       26.6267505355        8.7294010922
  C        35.1222269150       26.6046692089       11.5390015872
  C        18.1486419808        3.2469465062       13.7015062375
  C        17.4299868272        4.3438402147       12.9921915923
  C        16.4148519678        4.0525511295       12.0685612856
  C        15.7664780520        5.0831626047       11.3931753886
  C        16.1210092996        6.4283971647       11.6160135595
  C        17.1122988843        6.7117943162       12.5733516725
  C        17.7600644871        5.6829013339       13.2530763173
  C        15.4904619902        7.5240937850       10.8435838875
  C        15.4967224653        7.5076954510        9.4224469124
  C        16.1937199053        6.5061334578        8.6757786547
  H        10.6722651939       12.4666359814       11.8986006233
  H        11.6942542052       10.5518207052       10.6567021355
  H        15.3902322638       11.1665504634       12.7688850217
  H        14.3497934961       13.0694180625       14.0143527350
  H        13.3751048590       11.6307496056        9.1961304223
  H        50.3228990210       22.7491048577       11.9824348150
  H        49.3195797742       24.6234841800       10.6763532137
  H        45.6413004118       24.1597377695       12.8574188203
  H        46.6621933014       22.2889653408       14.1656104634
  H        47.6294468858       23.5756841765        9.2410756307
  H        14.8711921546        8.5877822307       12.6034575147
  H        50.2872993412       22.7036030319        4.0644723630
  H        49.2690916167       24.5763527056        5.3645848586
  H        45.6093275561       24.1072239013        3.1527384100
  H        46.6514403324       22.2520348483        1.8385774774
  H        47.6074042527       23.5516302921        6.8019363412
  H        40.6429850640       17.0829399959        3.4132188531
  H        48.6865015316       14.0948424721       15.7947797766
  H        10.6812209954       12.4671237698        4.0988408988
  H        11.6891994259       10.5251530184        5.3025376648
  H        15.3924342666       11.1571542959        3.2091942612
  H        14.3640029259       13.0857272594        1.9937373442
  H        13.3747925411       11.6216859357        6.7581629900
  H        47.9300900159       14.2170258661        1.7160414697
  H        47.7794826164       14.3712580903       14.4892025007
  H        49.0818351227       18.5517935608        2.8717927219
  H        10.4150871756       14.1343916440        0.0037344039
  H        24.4863389280        3.0294613689       11.9131762592
  H        25.6293504052        4.8886037605       10.6895863411
  H        23.2567042255        7.7554833283       12.8458883305
  H        22.1314638380        5.8865094584       14.0707141008
  H        23.8114483810        5.7960546534        9.2676286433
  H        36.3801550025       32.1854639289       11.9574146421
  H        35.2583753135       30.3594729788       10.6772345352
  H        37.5161521121       27.4381500748       12.8841440211
  H        38.6184569267       29.2768150054       14.1725667571
  H        37.0322775529       29.4446609408        9.2659577033
  H        25.7533142873        8.6093571180       12.6482696717
  H        36.4585090618       32.2405642156        4.1189570130
  H        35.3471823125       30.4215564100        5.4135379719
  H        37.5251602114       27.4868473714        3.1435817591
  H        38.6114226867       29.3175234079        1.8368144637
  H        37.0502559065       29.4643022092        6.8278315801
  H        46.1085606160       26.5869818054        3.3906343789
  H        44.6683798948       35.1161512603       15.8087904884
  H        24.4299927817        3.0406252773        4.0981510987
  H        25.5581309268        4.8805714790        5.3511668114
  H        23.1619958583        7.7682580529        3.2495719468
  H        22.0453964563        5.9161449607        1.9965815017
  H        23.7841223871        5.7966019831        6.8292374542
  H        44.9542357125       34.3907117068        1.7004313954
  H        44.9020719719       34.2069181102       14.4853942208
  H        40.6659331467       33.2088943483        2.8581637613
  H        23.1505897921        1.9576598853        0.0106291595
  H        25.7520656919       19.7462174088       12.0199307493
  H        23.5937077575       19.7716829501       10.7667194355
  H        22.4203575537       16.1259249822       12.7228152629
  H        24.5964514614       16.0943809094       13.9523276584
  H        23.7366711536       17.7313227713        9.2266545652
  H        35.1157233121       15.5086736251       11.9117260085
  H        37.2467930104       15.4557839333       10.6202354415
  H        38.7059317774       18.7922144579       12.9118195766
  H        36.5740605571       18.8157288244       14.2181666450
  H        37.2220343996       17.4168178285        9.2257942017
  H        20.3668346843       17.9490313157       12.6591047835
  H        35.1627940735       15.4592187571        4.1393836743
  H        37.2866672838       15.4082346926        5.4049764793
  H        38.7461028725       18.7538954968        3.1228629774
  H        36.6075994407       18.7876099304        1.8306149199
  H        37.2346533307       17.3925717082        6.7872262218
  H        35.1460029207       26.6827480909        3.3981934485
  H        28.5139289856       21.0801886748       15.9681292480
  H        25.7392397920       19.6701318073        4.1174790777
  H        23.5536146998       19.7363753489        5.3294916202
  H        22.3122770355       16.1720064778        3.2683035963
  H        24.4976598266       16.1279385963        2.0503031907
  H        23.7109313289       17.7239258739        6.7911073570
  H        29.0046357480       21.7203210335        1.7656991735
  H        29.1489710229       21.7517641116       14.6110150723
  H        32.1484313561       18.5768102068        2.9636382473
  H        27.4133763942       19.0841472073        0.0988190973
  H        14.8469566698       19.6496887236        4.1428837353
  H        17.0102352206       19.6998224143        5.3853737390
  H        18.3037637490       16.1910455431        3.2603067455
  H        16.1358367106       16.1567400228        2.0182289817
  H        16.9261586855       17.6936959576        6.8502595638
  H        46.0943653853       15.4510390770        4.0821818052
  H        43.9671547305       15.3963202118        5.3862775141
  H        42.5424819499       18.8060783404        3.1849187337
  H        44.6704416249       18.8370595725        1.8714911208
  H        44.0188709484       17.3530443778        6.8271383429
  H        20.2890066130       17.9336023324        3.4211129920
  H        46.0413589144       15.4034772307       12.0074789153
  H        43.9124811944       15.3525986637       10.7099684418
  H        42.5181297840       18.7975677181       12.8746812306
  H        44.6536486744       18.8359556876       14.1724086044
  H        44.0053441184       17.3411962134        9.2663772133
  H        46.1986541820       26.6822042506       12.6182245100
  H        52.7406972480       21.0624452978        0.1997768076
  H        14.8888796579       19.6743675079       11.8933821550
  H        17.0896189497       19.7436513489       10.7149014107
  H        18.3305070910       16.2125278936       12.8340563209
  H        16.1321310259       16.1684497472       14.0226905785
  H        16.9492229074       17.7019583621        9.2880345471
  H        52.3212573358       21.6726461603       14.2893919857
  H        52.0122321322       21.7012643477        1.5007193682
  H        49.0661301894       18.6074909603       13.1992029394
  H        13.2468219756       19.0169409487       15.9716522011
  H        29.9550657723       12.4335775551        4.2183339832
  H        28.8847363916       10.5087355069        5.3945318953
  H        25.2375679230       11.2123046405        3.2265400317
  H        26.3245565570       13.1313532477        2.0457753813
  H        27.1756255264       11.6688314901        6.7954508355
  H        31.0072835136       22.7589513509        4.0389557614
  H        32.0200034656       24.6357110095        5.3376125338
  H        35.6883981932       24.1555634017        3.1445095989
  H        34.6550971128       22.2868399762        1.8404904138
  H        33.6949482841       23.5678098652        6.7608368003
  H        25.6966389738        8.5956275101        3.4122657016
  H        30.9374443826       22.7239887740       11.9455060641
  H        31.9673080179       24.5794887058       10.6299597243
  H        35.6189442782       24.1140259306       12.8549434849
  H        34.5730615116       22.2600483748       14.1674214992
  H        33.6712252071       23.5521186673        9.1995064846
  H        40.5922599892       17.0950316936       12.6424916631
  H        32.5226348591       14.1591487359        0.2504733725
  H        29.8991681977       12.5449923370       11.8948589969
  H        28.8721424531       10.6430736602       10.6450904560
  H        25.2287154153       11.1578894220       12.8722852384
  H        26.2798103251       13.0425744750       14.1345239781
  H        27.1761175712       11.6844280754        9.2345086584
  H        33.3012504374       14.2227707873       14.4360875879
  H        33.4037707972       14.3469408858        1.6360393946
  H        32.0933070792       18.5304798338       13.1516896940
  H        30.2369302076       14.1951899734        0.0700116667
  H        16.1184403768        2.9633569504        4.1348474769
  H        14.9533493151        4.8204582793        5.3276971292
  H        17.3664055998        7.6859522749        3.2153918425
  H        18.5151108725        5.8182922156        2.0155157964
  H        16.7542110955        5.7400577649        6.7766607376
  H        44.8287209721       32.1401588154        3.9817300199
  H        45.9380116332       30.3412192751        5.3110246422
  H        43.6819401192       27.3781471188        3.1579193810
  H        42.5992828681       29.1899870205        1.8153893347
  H        44.2310213982       29.4370824485        6.7739499457
  H        14.8505883181        8.5457522888        3.3684428207
  H        44.9003996087       32.2339433110       11.9271606477
  H        46.0252378227       30.4129362182       10.6476422924
  H        43.7630115596       27.4840101072       12.8397863362
  H        42.6453228150       29.3176012765       14.1189084676
  H        44.2691523587       29.4708615525        9.2130059967
  H        35.0786495964       26.6176663507       12.6264116720
  H        36.6051684891       35.1339510125        0.1858138446
  H        16.1438500697        3.0129522366       11.8988177960
  H        14.9741715560        4.8562829532       10.6830811733
  H        17.3956100363        7.7472890504       12.7503865150
  H        18.5428736447        5.8932924706       13.9779341768
  H        16.7652035942        5.7559630194        9.2142647324
  H        36.2787166722       34.4823727093       14.2680438879
  H        36.3812216145       34.2090550698        1.5048788447
  H        40.5805466543       33.2026866409       13.1485605455
  H        17.4707808871        1.9471513751       15.9690110215
  H        28.8149663755       18.8970256771        4.4397648182
  H        28.9037031774       18.6782003354       11.7491610915
  H        31.5806381982       15.7848160307       11.5152621400
  H        30.9637978692       15.3936908307        4.3526843116
  H        28.4721070410       17.2769939786        6.9682838272
  H        29.6055882898       15.1442572896        6.9298767055
  H        30.4922736303       20.0934294671       10.1058168295
  H        32.7137601195       17.8277802503        9.3143987115
  H        26.5275477533       17.6550551928       10.8212870122
  H        18.8536095896        0.8689948651        4.3404138166
  H        40.5280081293       35.2289690269       11.9469250345
  H        42.3241872740       34.4189407198       11.5852417364
  H        22.0878644611        0.6918458693        4.3568188414
  H        11.5970074120       18.7131428708        4.3873068904
  H        52.2646000590       18.4304298711       11.6723335658
  H        49.2545936698       16.4771439173       11.5796050564
  H        10.1500177154       15.7980291926        4.2980602290
  H        50.8493163882       17.6923550267       11.9493688491
  H        10.0458734413       17.3942626090        4.0572076127
  H        20.2149756551        0.0021884516        4.0470676331
  H        39.1837980787       36.1246018106       11.6814705580
 Ni        30.9884624271       17.9403303613       10.8301431468
 Ni        31.1553755451       16.4725658022        8.2426109574
 Ni        30.0975465593       18.8936212478        7.9136044996
 Ni        30.3487950461       17.3759574953        5.4127125927
  O        10.6497229307       14.3651880667       13.4806814184
  O        12.6130882853       14.6575923996       14.5787233317
  O        49.1479242190       16.8460799426       15.9846156718
  O        50.3502116036       20.9359459081       13.6431110796
  O        48.3485467971       20.5933614080       14.6608703142
  O        11.0511220898       17.0540091660       14.4953358092
  O        50.3209844013       20.8816802054        2.4118317472
  O        48.3467652787       20.5867363986        1.3321628227
  O        49.5435650519       18.2485000749        2.0733991113
  O        12.3587569611       18.6244074661        0.0047512959
  O        48.6931638168       14.1487021972       14.7461038832
  O         8.2098435694       14.2103426604        1.3276027644
  O        10.7353585901       14.5067372957        2.6694360601
  O        12.5717986837       14.5828970301        1.3335489984
  O        22.8446990193        2.0432619976       13.4820141672
  O        21.6058566406        3.5925398401       14.5843015949
  O        42.0582236097       34.1373801793       15.9738867551
  O        37.9818676202       33.1377816864       13.5673835361
  O        39.2182414100       31.5762026749       14.6616861349
  O        20.3084572623        1.0396194547       14.4969353684
  O        38.0246877177       33.1857986658        2.4202556249
  O        39.2192614146       31.5838419181        1.3314051814
  O        40.6523278504       33.7693541708        2.0653494078
  O        18.2555379016        1.3761000712        0.0019060029
  O        44.6222104661       35.1005391960       14.7536246727
  O        24.2053898424        0.0000392430        1.3259008003
  O        22.7529265308        2.0577651111        2.5889688461
  O        21.6243731060        3.5960285712        1.3475918611
  O        27.5001064229       18.7518546633       13.4840966935
  O        26.7610287028       16.9385439361       14.6495529735
  O        30.6648531753       19.4060603155        0.0805870471
  O        33.5421518060       16.3400799427       13.5844104096
  O        34.2720154980       18.1696798182       14.7274674548
  O        29.5723795301       17.0687094534       14.5763386041
  O        33.5574369555       16.3436452382        2.4208930340
  O        34.3000619762       18.2421135200        1.4112085074
  O        31.6513801826       18.3131085077        2.1726659371
  O        30.3259716596       15.1622733546        0.0892409623
  O        28.5537752005       21.0350739363       14.8968573451
  O        28.5154324642       20.9548987522        1.4186677096
  O        27.4641718986       18.6755844783        2.6697555316
  O        26.6950415244       16.9304200129        1.4184245595
  O        13.1488504714       18.6930945433        2.5926195576
  O        13.9197091193       16.9161537421        1.4102248202
  O        50.5954864762       19.3501430078        0.0253848863
  O        47.6835273792       16.3270172184        2.4221954147
  O        46.9517732973       18.1756896098        1.3296466104
  O        11.0694356389       17.0156268716        1.4948647738
  O        47.6744278511       16.3361253085       13.6472074671
  O        46.9263258400       18.2358456273       14.6588190922
  O        49.5681164151       18.3177217783       13.9770013229
  O        10.3184084879       15.1003247271        0.0021419158
  O        52.6707055216       21.0279024417        1.2469563653
  O        12.1468281878       20.8909763467       14.6679285115
  O        13.1097113728       18.6133622853       13.3199636878
  O        13.9579743378       16.9868855645       14.6600278126
  O        29.9905546711       14.4393439880        2.7342886033
  O        28.0891135909       14.6538505254        1.4991992437
  O        32.1314868285       16.8629123536        0.0730981466
  O        30.9652025545       20.9481374671        2.4193641672
  O        32.9460042407       20.6018946151        1.3460429736
  O        29.5704243023       17.0790310630        1.5865339231
  O        30.8735299832       20.9471564907       13.6576007395
  O        32.8786571355       20.5894780353       14.6635207403
  O        31.6558574778       18.3082330024       13.9932296023
  O        28.2954039413       18.6784710866        0.0839803825
  O        32.4888959923       14.2121091909        1.3290659063
  O        32.4039998515       14.2310505807       14.8098234288
  O        29.9239827502       14.4429803277       13.4848050703
  O        28.0411563203       14.5917601606       14.7462433426
  O        17.8892188593        1.9666713109        2.6679398436
  O        18.9562279110        3.5271642429        1.4130503283
  O        39.1687063053       34.1388080640        0.0023173524
  O        43.2802034323       33.0589625696        2.3368031398
  O        42.0345222420       31.5064625734        1.2467439341
  O        20.3177356234        1.0367986583        1.4852977339
  O        43.2760469916       33.1825086296       13.5698067569
  O        42.0052735828       31.5841008841       14.5778738908
  O        40.5791919920       33.7751529753       13.9308095461
  O        22.3673374123        1.3845905775        0.0029964045
  O        36.6727827473       35.0997708815        1.2384348334
  O        16.4455788807        0.0642646061       14.6631587444
  O        17.9364737607        2.0434350509       13.3212566232
  O        18.9190645799        3.5931740530       14.6608148702
  O        29.8090163052       18.8388737484       12.0736014128
  O        29.7471036722       18.9783372726        4.1519228103
  O        31.1780612579       16.4777168552       12.0699265603
  O        31.3054370333       16.2654361374        4.0685203503
  O        32.1938182293       17.0776828287        9.6643900883
  O        27.1657072985       17.5786979780       10.0844463370
  O        30.3852232952       15.6891344692        6.7386886719
  O        31.5960401001       17.9494278596        6.9160825051
  O        31.0087881394       19.4068980336        9.6450478007
  O        28.8160952940       18.0910663040        6.5618389078
  O        39.4567980337       35.2439123613       11.9968981614
  O        19.1415020944        0.0045476835        3.9956439902
  O        41.9694797521       35.1725417136       12.0820390772
  O        21.6912236391       -0.0693563288        3.9010070733
  O        51.3649926149       18.6141827733       12.0004669119
  O        10.7511638566       18.7473412128        3.9099661222
  O        50.0792063282       16.4129647973       12.0866719394
  O         9.5244680880       16.4830185726        3.9963430505
 Zr         9.2944746688       16.0528551251       14.1770950769
 Zr        49.8346219746       16.0066688860        1.7518321948
 Zr        22.0734063692        0.0296679347       14.1838625201
 Zr        42.4610881054       35.1532255201        1.8060145167
 Zr        29.6169514523       19.1138657609       14.2815558818
 Zr        29.5901011913       19.1762661492        1.8977191827
 Zr        11.0362200000       19.0521317754        1.8324473157
 Zr        11.0420927652       19.1548818988       14.2465937891
 Zr        31.3615431811       16.0981289486        1.8716813865
 Zr        31.3808417397       16.0427042833       14.2477226876
 Zr        18.6012779886       -0.0014565456        1.7684444099
 Zr        18.5065842764       -0.0078775075       14.2086913697
 Zr        12.2997211730       16.3233913500       15.9850461515
 Zr        48.6137893158       18.8326445755        0.0151940796
 Zr        20.3153609177        2.4732155076       15.9852875313
 Zr        40.6437015832       32.6868583281       15.9731260715
 Zr        28.3599560286       16.3411913089        0.0893986315
 Zr        32.6345888932       18.8425099291        0.0505640436
  H        32.4532555265       18.3801896975        6.7639977814
  O        33.4188565401       15.0963936761        5.6642521388
  H        32.7585413972       14.9035775118        6.3522894322
  H        32.9054804148       15.6499743808        5.0363904161
  O        28.1770662200       19.6427780653        8.6565584667
  H        27.8229628139       19.3345263455        7.7922445049
  H        27.8148772367       18.9705283674        9.2933378403
  O        30.2889727792       20.5176404865        6.4900335169
  H        30.1339126459       20.0919533744        5.5942103323
  H        29.5973972226       21.1933796681        6.5791532871
  H        27.8342296276       16.9317078534       10.3755239338
  H        30.5327619236       15.5266510305        9.1397499143
