     583
 i =      190, E =     -4830.6217721140
  C        11.8582555539       14.0534993690       13.7364525060
  C        12.4556532477       12.8902649500       13.0183972515
  C        11.7043284034       12.1721638756       12.0758253428
  C        12.2806656325       11.1099339694       11.3834419665
  C        13.6208726975       10.7392913214       11.6119758947
  C        14.3535103724       11.4418248589       12.5866301349
  C        13.7806465484       12.5067571567       13.2782032190
  C        14.2606245101        9.6488404267       10.8384924139
  C        14.2561732861        9.6569109369        9.4167781079
  C        13.7427454838       10.7588682460        8.6627993141
  C        49.1263874847       21.2334127214       13.8746510067
  C        48.5496056098       22.4011354143       13.1475043822
  C        49.2998191128       23.0689174823       12.1669372536
  C        48.7328143230       24.1079681444       11.4337144001
  C        47.4020658337       24.5091461033       11.6619783809
  C        46.6708471819       23.8597038429       12.6749224671
  C        47.2333537697       22.8148443270       13.4042901600
  C        46.7719261689       25.5868764013       10.8646750796
  C        46.7611655871       25.5573518438        9.4429165662
  C        47.2609581075       24.4421571625        8.6994807146
  C        14.8604348312        8.5707532735        8.7034941463
  C        14.8914646783        8.5968778185       11.5151052459
  C        49.1127368058       21.2034581678        2.1504041332
  C        48.5273116483       22.3645285054        2.8777526036
  C        49.2667933009       23.0258213245        3.8701171362
  C        48.6904108197       24.0603009130        4.6016058122
  C        47.3597132151       24.4564580824        4.3638990388
  C        46.6389391899       23.8108571908        3.3410835605
  C        47.2125286919       22.7749709771        2.6093005614
  C        46.7214398161       25.5315837744        5.1548523078
  C        46.7333931207       25.5280998412        6.5765411665
  C        47.2486939412       24.4288272777        7.3329261556
  C        40.6205283030       17.1159955507        7.3084594404
  C        40.6355651033       17.1212668431        4.4987934082
  C        11.8825591242       14.0863681144        2.2904369732
  C        12.4717256333       12.9102309858        2.9943801811
  C        11.7144774670       12.1777627388        3.9212823083
  C        12.2809577494       11.0952680813        4.5897594800
  C        13.6194441846       10.7207624632        4.3572482571
  C        14.3569497138       11.4352857925        3.3952722027
  C        13.7916053646       12.5164470217        2.7225219652
  C        14.2532606696        9.6242533111        5.1277951428
  C        14.2522630117        9.6444629201        6.5496444323
  C        13.7421612456       10.7532880307        7.2967498556
  C        22.5123152468        3.2457943723       13.7484255815
  C        23.2256386869        4.3541578694       13.0512340055
  C        24.2252725147        4.0802626826       12.1059904433
  C        24.8491529003        5.1238669841       11.4267335944
  C        24.4894140630        6.4641367715       11.6721250652
  C        23.5185741042        6.7295755023       12.6549934201
  C        22.8901930295        5.6879168118       13.3326562864
  C        25.0895286340        7.5743021954       10.8964527562
  C        25.0600218591        7.5662050463        9.4748977651
  C        24.3589910285        6.5645241953        8.7308918977
  C        38.3026696598       31.9304882621       13.8439548710
  C        37.5725226886       30.8418818312       13.1338394997
  C        36.6101586203       31.1472078180       12.1593084950
  C        35.9914310708       30.1279959450       11.4409218330
  C        36.3206638953       28.7787276275       11.6757140983
  C        37.2539799991       28.4807362277       12.6862771086
  C        37.8765638380       29.4986842375       13.4037011339
  C        35.7157830433       27.6880947479       10.8791995391
  C        35.7422951185       27.7044867883        9.4578995239
  C        36.4464293572       28.7069892381        8.7190937612
  C        25.6801017131        8.6365056036        8.7530314015
  C        25.6831265775        8.6525084239       11.5653352146
  C        38.3275149660       31.9616946128        2.1609796865
  C        37.6025812624       30.8892244752        2.9017681881
  C        36.6712420882       31.1999318910        3.9045375023
  C        36.0570481950       30.1830890685        4.6331183929
  C        36.3596670679       28.8295436601        4.3829788110
  C        37.2685003524       28.5287392957        3.3499130284
  C        37.8847722795       29.5422169863        2.6224372449
  C        35.7485670593       27.7323729032        5.1683729430
  C        35.7586620802       27.7274238186        6.5906334725
  C        36.4541098411       28.7182561191        7.3525293614
  C        46.1356246636       26.6208931161        7.2866207847
  C        46.0875157294       26.5798976696        4.4787236835
  C        22.4598852697        3.2565236160        2.2646525165
  C        23.1503460020        4.3660130578        2.9905855143
  C        24.1471754944        4.0817438070        3.9376433360
  C        24.7715629484        5.1129785283        4.6356279763
  C        24.4200814337        6.4589243281        4.4090099369
  C        23.4461669176        6.7362467941        3.4307891901
  C        22.8167445282        5.7053257270        2.7338251676
  C        25.0488925405        7.5591973602        5.1825943044
  C        25.0399493121        7.5572912145        6.6056456827
  C        24.3469020714        6.5617190668        7.3642639195
  C        26.6117366056       17.8887111662       13.7519963973
  C        25.3059341982       17.9263429533       13.0200818167
  C        25.0090781271       18.9665245362       12.1219499759
  C        23.7950748112       18.9767327035       11.4342250086
  C        22.8419585743       17.9581988597       11.6325207312
  C        23.1349500980       16.9406483244       12.5597922514
  C        24.3508272070       16.9199240485       13.2395976467
  C        21.5666841084       17.9432853350       10.8736775396
  C        21.5709469660       17.9381130113        9.4526603445
  C        22.7800751668       17.8371402052        8.6939298971
  C        34.4175336801       17.2245829996       13.8750164210
  C        35.7119036928       17.1692990669       13.1380625541
  C        35.9084453235       16.2148083001       12.1276685034
  C        37.0953401774       16.1941700237       11.4011496982
  C        38.1162438288       17.1298631998       11.6600617081
  C        37.9213818234       18.0641979626       12.6955426409
  C        36.7338994738       18.0877158799       13.4231718636
  C        39.3715082022       17.1376021314       10.8749247628
  C        39.3658211754       17.1487145063        9.4524480777
  C        38.1588054383       17.2676807875        8.6937850890
  C        20.3243556059       17.9500287164        8.7455618381
  C        20.3442501692       17.9306922452       11.5591015158
  C        34.4441056383       17.2343995264        2.1888060386
  C        35.7478827042       17.1293175542        2.9022423279
  C        35.9525780933       16.1570908317        3.8931145457
  C        37.1436865035       16.1384708558        4.6154614030
  C        38.1567944470       17.0836834117        4.3670445250
  C        37.9597580188       18.0247622966        3.3379320001
  C        36.7685533061       18.0527877823        2.6198182279
  C        39.4040283751       17.1088275953        5.1635263061
  C        39.3826281932       17.1318616367        6.5852647307
  C        38.1659584273       17.2554389225        7.3273067671
  C        35.1273015467       26.6498573735        7.2966979625
  C        35.1572503678       26.6607552742        4.4871750180
  C        26.5695096739       17.8262003394        2.3295123429
  C        25.2548821292       17.8774985856        3.0329624879
  C        24.9707156784       18.9176818836        3.9305245658
  C        23.7512985973       18.9491621470        4.6011869282
  C        22.7886194389       17.9416621778        4.3953145542
  C        23.0664316062       16.9247382749        3.4647168251
  C        24.2865040474       16.8909972210        2.7924898434
  C        21.5240382470       17.9303224447        5.1669059511
  C        21.5478835089       17.9303538388        6.5875075720
  C        22.7686722290       17.8327703610        7.3279423624
  C        14.0444034358       17.8302618438        2.2908164846
  C        15.3500849224       17.8914032659        3.0124740081
  C        15.6073779662       18.9013448912        3.9520994474
  C        16.8172512460       18.9263500188        4.6425403895
  C        17.8015336749       17.9443337364        4.4132519512
  C        17.5494138206       16.9584739150        3.4411309595
  C        16.3387505647       16.9289846328        2.7526817497
  C        19.0697164874       17.9311309304        5.1812521948
  C        19.0668618262       17.9288806735        6.6030541100
  C        17.8592736528       17.8244397703        7.3629289147
  C        46.8030919181       17.2169696115        2.1623439150
  C        45.5112346084       17.1506282696        2.9026295503
  C        45.3063476950       16.1735030437        3.8892064730
  C        44.1224245873       16.1516345154        4.6213655140
  C        43.1131858647       17.1065029355        4.3890986587
  C        43.3147456278       18.0617809042        3.3744529847
  C        44.4995254138       18.0880359511        2.6433719744
  C        41.8597691600       17.1164193331        5.1771804204
  C        41.8668030198       17.1257277182        6.5990698301
  C        43.0759722783       17.2274455365        7.3564541353
  C        20.3126854498       17.9460558692        7.3115997188
  C        20.2936333157       17.9117648341        4.4992005118
  C        46.7830191049       17.2331817386       13.8798150835
  C        45.4815678409       17.1322794535       13.1593322723
  C        45.2628887577       16.1391620405       12.1919647968
  C        44.0753590000       16.1160615029       11.4641173270
  C        43.0746112379       17.0829203760       11.6847220743
  C        43.2843681506       18.0462220341       12.6896343061
  C        44.4728774806       18.0758929957       13.4128081918
  C        41.8270224102       17.1071318313       10.8879612127
  C        41.8500898134       17.1203367899        9.4663872124
  C        43.0682356797       17.2216386609        8.7233049449
  C        46.1533780747       26.6373495163        8.7211611465
  C        46.1619695515       26.6559700932       11.5308153558
  C        14.0431422495       17.8289598098       13.7014038000
  C        15.3621500743       17.8984063614       13.0041533830
  C        15.6377740286       18.9192192320       12.0823413716
  C        16.8649558186       18.9554394791       11.4238157807
  C        17.8438857459       17.9698274180       11.6616209365
  C        17.5741597943       16.9751851582       12.6189692977
  C        16.3489336239       16.9389148728       13.2812308818
  C        19.1114396255       17.9507034608       10.8924708082
  C        19.0891897664       17.9375612904        9.4707905781
  C        17.8699257026       17.8281478048        8.7290141779
  C        28.8063126417       14.0903603927        2.3938653327
  C        28.1919679750       12.9183332897        3.0821052957
  C        28.9147633803       12.1734790678        4.0261012621
  C        28.3114919671       11.1019394130        4.6802766545
  C        26.9729839399       10.7498033107        4.4128707612
  C        26.2729173080       11.4734513865        3.4308149761
  C        26.8728930336       12.5462740455        2.7764923891
  C        26.3010754383        9.6724256304        5.1757823443
  C        26.2858766998        9.7032650403        6.5968375766
  C        26.7875980165       10.8186032248        7.3398778324
  C        32.1760975317       21.2342522932        2.1578356579
  C        32.7638262730       22.4019884594        2.8785120645
  C        32.0020741728       23.1012051779        3.8289792283
  C        32.5713568128       24.1409682657        4.5592558877
  C        33.9139230683       24.5142995256        4.3531811738
  C        34.6566076605       23.8353638469        3.3694614075
  C        34.0923221992       22.7869511937        2.6454805747
  C        34.5405555182       25.5939611796        5.1497315673
  C        34.5312952900       25.5673567625        6.5708004028
  C        34.0187799590       24.4546203967        7.3096591492
  C        25.6756089707        8.6274341818        7.3181064964
  C        25.6652748221        8.6198760017        4.5044159995
  C        32.1054616755       21.2290757241       13.8793471726
  C        32.6943847934       22.3805565832       13.1352599219
  C        31.9548560519       23.0436550153       12.1439141215
  C        32.5320850782       24.0749874398       11.4070005730
  C        33.8624051291       24.4728986090       11.6439632447
  C        34.5848902750       23.8231656209       12.6630105826
  C        34.0123549596       22.7863011238       13.3950653796
  C        34.5002751557       25.5546625059       10.8585250608
  C        34.5111453517       25.5468027238        9.4366188842
  C        34.0087104900       24.4443075523        8.6761205011
  C        40.6119282886       17.1188646569        8.7433488979
  C        40.5960495311       17.1327980920       11.5535902363
  C        28.7245712462       14.0994851779       13.8123051759
  C        28.1072285600       12.9538157110       13.0791608702
  C        28.8370994962       12.2674719629       12.0957465684
  C        28.2570848446       11.2101053080       11.3993497517
  C        26.9300882331       10.8110861167       11.6584553398
  C        26.2176110067       11.4851613300       12.6686302936
  C        26.7961585538       12.5432690029       13.3680495627
  C        26.2905305887        9.7176431540       10.8867034105
  C        26.2811125529        9.7272852212        9.4641479643
  C        26.7817547639       10.8320677082        8.7057803957
  C        18.1355051083        3.1809356143        2.3222497220
  C        17.4062462061        4.2782416054        3.0209898256
  C        16.3902760784        3.9998837448        3.9482014946
  C        15.7425540062        5.0398534216        4.6117503732
  C        16.0946826125        6.3835250963        4.3722532133
  C        17.0843740997        6.6530579960        3.4088299826
  C        17.7334964974        5.6157258680        2.7437826433
  C        15.4702799063        7.4912309787        5.1352531845
  C        15.4858210437        7.4907870614        6.5569556334
  C        16.1876605085        6.4973544822        7.3101025517
  C        42.9459226916       31.8595163468        2.0780356813
  C        43.6462881763       30.7718614489        2.8219264375
  C        44.5920614972       31.0931646741        3.8077823847
  C        45.1977821897       30.0876032799        4.5554079128
  C        44.8711355749       28.7345549070        4.3407393612
  C        43.9451133621       28.4202233029        3.3276975157
  C        43.3363037066       29.4253771980        2.5796695806
  C        45.4886769123       27.6552560757        5.1439605163
  C        45.4930638492       27.6810730016        6.5656521029
  C        44.8062590035       28.6893260932        7.3122542439
  C        14.8566546107        8.5632016531        7.2692606268
  C        14.8745569669        8.5626867384        4.4565970900
  C        42.9464439011       31.9615887642       13.8038721765
  C        43.6916242066       30.8854782535       13.0904127449
  C        44.6564931774       31.1913903563       12.1183790183
  C        45.2780208824       30.1718147897       11.4006529705
  C        44.9539140844       28.8215156164       11.6379696856
  C        44.0201571809       28.5238152553       12.6484887166
  C        43.3919231909       29.5405776254       13.3606857754
  C        45.5629973284       27.7241357160       10.8527402512
  C        45.5335378542       27.7175832430        9.4314396760
  C        44.8275222453       28.7079917339        8.6784365004
  C        35.1179594353       26.6384752294        8.7313192663
  C        35.1136033506       26.6120822732       11.5408487306
  C        18.1487623610        3.2470611942       13.7015337677
  C        17.4301803284        4.3439766596       12.9921682906
  C        16.4149025738        4.0526971153       12.0687062700
  C        15.7665666732        5.0832989882       11.3932666949
  C        16.1212823009        6.4285100356       11.6159351740
  C        17.1127759331        6.7119084481       12.5730587310
  C        17.7605006191        5.6830192502       13.2528267005
  C        15.4907213649        7.5242060011       10.8435087636
  C        15.4968836395        7.5077712638        9.4223713139
  C        16.1938890115        6.5062064889        8.6757093700
  H        10.6724469916       12.4668362557       11.8981800490
  H        11.6944881429       10.5520115326       10.6563765094
  H        15.3900849245       11.1661765911       12.7693731175
  H        14.3495448695       13.0689896473       14.0148276946
  H        13.3752190219       11.6308022180        9.1960585849
  H        50.3226777490       22.7492268874       11.9824932454
  H        49.3193219929       24.6235963560       10.6764067218
  H        45.6411003036       24.1598908741       12.8576137178
  H        46.6620343334       22.2890840657       14.1657997502
  H        47.6291246852       23.5756380959        9.2411968379
  H        14.8714089891        8.5878121475       12.6034041498
  H        50.2870548935       22.7034390177        4.0646086427
  H        49.2688752259       24.5761896149        5.3647594897
  H        45.6092046197       24.1073619918        3.1526664917
  H        46.6512979595       22.2521608938        1.8384714765
  H        47.6071079371       23.5515403258        6.8020523743
  H        40.6414206512       17.0802223455        3.4112390278
  H        48.6864899400       14.0947917157       15.7947757787
  H        10.6812355929       12.4673438893        4.0992514435
  H        11.6892267312       10.5253991083        5.3029353058
  H        15.3919601385       11.1564334172        3.2084348282
  H        14.3634821842       13.0849350957        1.9929489363
  H        13.3747912720       11.6216722920        6.7581183786
  H        47.9300939743       14.2166128847        1.7160236236
  H        47.7793821852       14.3708434628       14.4891784127
  H        49.0813614409       18.5517403889        2.8717048069
  H        10.4149034380       14.1343555468        0.0037152861
  H        24.4911144785        3.0432242689       11.9132844157
  H        25.6240492604        4.9106295121       10.6935690471
  H        23.2330617272        7.7609193847       12.8515193335
  H        22.1182849572        5.8840899963       14.0727744783
  H        23.7993493065        5.8078552410        9.2729606419
  H        36.3719113295       32.1906859050       11.9672241315
  H        35.2443732277       30.3677631391       10.6874628846
  H        37.5155993804       27.4414055678       12.8738420148
  H        38.6225867864       29.2770672285       14.1631693350
  H        37.0127476538       29.4566576946        9.2640485651
  H        25.7199410401        8.6358965140       12.6531324536
  H        36.4494702354       32.2446431008        4.1105089840
  H        35.3296522155       30.4302797645        5.4032140391
  H        37.5145317427       27.4880114570        3.1496074748
  H        38.6088805697       29.3142904184        1.8440181428
  H        37.0273571314       29.4759737595        6.8261841433
  H        46.1086383515       26.5870565596        3.3906810609
  H        44.6684255502       35.1162296829       15.8087934777
  H        24.4240362875        3.0438358790        4.1083332223
  H        25.5485931768        4.8846424216        5.3620365022
  H        23.1628872846        7.7704879248        3.2461432385
  H        22.0491948509        5.9174771377        1.9931102288
  H        23.7769603997        5.8037565297        6.8347274037
  H        44.9546033996       34.3911239835        1.7007058649
  H        44.9022153118       34.2070900962       14.4853211318
  H        40.6658758645       33.2088542963        2.8580743042
  H        23.1505237243        1.9580743960        0.0108952795
  H        25.7327798811       19.7695322111       11.9910351833
  H        23.5670273212       19.7861520683       10.7437391912
  H        22.4089503454       16.1453316972       12.7167221368
  H        24.5901912595       16.1241559700       13.9413986843
  H        23.7233941127       17.7283122148        9.2215193908
  H        35.1147875025       15.5017144067       11.9180606697
  H        37.2453197165       15.4448511208       10.6270223171
  H        38.7006906143       18.7952827988       12.9006002017
  H        36.5691362949       18.8229917423       14.2073622442
  H        37.2191415842       17.3957578523        9.2230263222
  H        20.3518126536       17.9579641686       12.6473549787
  H        35.1673911261       15.4409286693        4.1236340599
  H        37.2923764301       15.3857537373        5.3865689496
  H        38.7353416316       18.7612183723        3.1383245467
  H        36.5950586194       18.8000070689        1.8493561883
  H        37.2316599467       17.3690080031        6.7847990377
  H        35.1313080922       26.6834095503        3.3993274616
  H        28.5160835294       21.0807453006       15.9733502244
  H        25.7164665173       19.6947628569        4.0825355203
  H        23.5284787390       19.7584522047        5.2933259150
  H        22.3300115521       16.1403415206        3.3025044366
  H        24.5188410061       16.0955761537        2.0883360452
  H        23.7016146092       17.7223364988        6.7829518039
  H        28.9965588392       21.7182662934        1.7748633382
  H        29.1426536116       21.7536429424       14.6085823895
  H        32.1177404995       18.5491126535        2.9874931213
  H        27.4107267535       19.0865956388        0.1053808052
  H        14.8485158907       19.6609275001        4.1259881772
  H        17.0149409014       19.7146150302        5.3657865179
  H        18.3004053577       16.1928931325        3.2572203960
  H        16.1296614453       16.1554027398        2.0176401421
  H        16.9177287079       17.7080655539        6.8340532177
  H        46.0919465602       15.4450759198        4.0756690695
  H        43.9643368134       15.3869440942        5.3786913823
  H        42.5429996258       18.8062406377        3.1900839330
  H        44.6712487152       18.8404685416        1.8772379523
  H        44.0171012209       17.3407744836        6.8260150076
  H        20.2879602767       17.9344987322        3.4109334475
  H        46.0388072406       15.3984056262       12.0124061466
  H        43.9099871037       15.3441527228       10.7156350666
  H        42.5181451402       18.7977826007       12.8681351358
  H        44.6533721189       18.8391295671       14.1657920877
  H        44.0034503350       17.3292009898        9.2651113339
  H        46.1985093219       26.6823611307       12.6182727721
  H        52.7406249552       21.0624387921        0.1997186624
  H        14.8805783047       19.6784646400       11.8992153982
  H        17.0779894870       19.7507667271       10.7127404171
  H        18.3204646652       16.2064904809       12.8089094247
  H        16.1254150982       16.1594359715       14.0056409075
  H        16.9366144715       17.7146859035        9.2723345891
  H        52.3212596424       21.6728023767       14.2895838023
  H        52.0124756857       21.7015917794        1.5006570743
  H        49.0657321186       18.6073941896       13.1991632234
  H        13.2463484226       19.0171714145       15.9710072502
  H        29.9476639313       12.4457658012        4.2328036888
  H        28.8735179315       10.5243376632        5.4110883330
  H        25.2391073754       11.2106251767        3.2161816826
  H        26.3300166004       13.1265325750        2.0344598510
  H        27.1524407205       11.6852239355        6.7968449829
  H        30.9648566619       22.8117161284        3.9862055882
  H        31.9771252589       24.6810310369        5.2934000201
  H        35.6954601631       24.1147816412        3.2060899629
  H        34.6713693162       22.2365243040        1.9075021831
  H        33.6576950615       23.5876631346        6.7639856527
  H        25.6970857010        8.5974800119        3.4165153818
  H        30.9301178120       22.7302463199       11.9579889871
  H        31.9523253214       24.5896238670       10.6438593395
  H        35.6149476545       24.1192028974       12.8506206918
  H        34.5753968243       22.2618954977       14.1636054057
  H        33.6395717841       23.5693779188        9.2038669865
  H        40.5895353798       17.0940515478       12.6412598471
  H        32.5192502056       14.1596252980        0.2526248114
  H        29.8600615444       12.5770628825       11.8940643845
  H        28.8333313512       10.6750919621       10.6475923128
  H        25.1915653665       11.1896696747       12.8782026003
  H        26.2419367098       13.0757516846       14.1374654039
  H        27.1407267582       11.7098499277        9.2350474084
  H        33.2972932216       14.2203573124       14.4314371166
  H        33.4026758355       14.3581205699        1.6327117966
  H        32.0862909988       18.5249438252       13.1464176026
  H        30.2226951450       14.1912078744        0.0715730256
  H        16.1180468078        2.9633762891        4.1343504248
  H        14.9528965176        4.8204764533        5.3271876530
  H        17.3669668971        7.6859299309        3.2159582345
  H        18.5158074080        5.8182832795        2.0162008482
  H        16.7542623138        5.7400686006        6.7765614309
  H        44.8285402197       32.1402213417        3.9818494672
  H        45.9378483969       30.3413456256        5.3111603908
  H        43.6822563686       27.3781715166        3.1577075863
  H        42.5995736974       29.1900052968        1.8151264776
  H        44.2310823907       29.4372139750        6.7739311106
  H        14.8504262619        8.5455913775        3.3683896926
  H        44.9003140175       32.2340512218       11.9271762642
  H        46.0251629289       30.4130492703       10.6476523191
  H        43.7629407719       27.4840994488       12.8397951791
  H        42.6452763586       29.3177326357       14.1189683141
  H        44.2691774247       29.4710229502        9.2129810283
  H        35.0754830749       26.6233895135       12.6284770632
  H        36.6052119427       35.1341106691        0.1856812739
  H        16.1437806043        3.0131075844       11.8991117188
  H        14.9741453057        4.8564284133       10.6832923838
  H        17.3962682059        7.7473866663       12.7498841309
  H        18.5434797215        5.8934049995       13.9775028036
  H        16.7653819841        5.7560415878        9.2141980272
  H        36.2786948053       34.4826561265       14.2680559188
  H        36.3810418614       34.2091280042        1.5047236598
  H        40.5808578115       33.2030358878       13.1485904278
  H        17.4708806117        1.9472477514       15.9690815004
  H        28.7785918245       18.8564793158        4.3752749373
  H        28.8717875405       18.7243939534       11.7708023535
  H        31.6697139024       15.8441679305       11.5245683292
  H        31.1400525917       15.4363102030        4.4323058737
  H        28.5856450000       17.3790790962        7.0155884472
  H        29.7196448953       15.2390801960        6.7069210398
  H        30.4492547193       20.0364474618       10.0940969052
  H        32.8238862783       17.5812600225        9.4478300595
  H        26.5457007426       17.7309038541       10.8193420057
  H        18.8533997369        0.8687870853        4.3404567068
  H        40.5281347022       35.2288378547       11.9468577058
  H        42.3249313310       34.4195560224       11.5849090485
  H        22.0877223235        0.6918157393        4.3568632749
  H        11.5967987935       18.7131775491        4.3873365233
  H        52.2643424143       18.4304449342       11.6723089863
  H        49.2546425425       16.4766409477       11.5793175327
  H        10.1497731650       15.7979927210        4.2981068155
  H        50.8490416164       17.6923895874       11.9492642205
  H        10.0456873029       17.3942669263        4.0572121697
  H        20.2147385182        0.0020433290        4.0470725613
  H        39.1840226856       36.1246069949       11.6812837083
 Ni        30.9502963829       17.9063554121       10.8310775135
 Ni        31.2368693040       16.3879403934        8.2410496702
 Ni        30.0554168330       18.8161183774        8.0783832495
 Ni        30.1380099324       17.2606572103        5.3271734508
  O        10.6497507447       14.3651863101       13.4806649278
  O        12.6130752948       14.6575493063       14.5787343740
  O        49.1477764072       16.8460801558       15.9845798281
  O        50.3501111920       20.9361425011       13.6431746855
  O        48.3484844423       20.5933368225       14.6608551956
  O        11.0507961770       17.0541311536       14.4952500407
  O        50.3207981683       20.8816703932        2.4118610486
  O        48.3466865090       20.5866963508        1.3321294047
  O        49.5433558918       18.2485015306        2.0734176652
  O        12.3584545955       18.6243950252        0.0046532405
  O        48.6931477134       14.1487119548       14.7461042861
  O         8.2098338448       14.2103127349        1.3275840290
  O        10.7353085532       14.5067606305        2.6694633771
  O        12.5717217438       14.5828689281        1.3335663479
  O        22.8449121116        2.0446754906       13.4817394250
  O        21.6053252987        3.5924140439       14.5850686595
  O        42.0582226104       34.1375131993       15.9738829937
  O        37.9818220832       33.1388353193       13.5675841349
  O        39.2180184211       31.5763381132       14.6614068696
  O        20.3086059401        1.0398238886       14.4970399252
  O        38.0244668898       33.1856221609        2.4202699789
  O        39.2186607097       31.5832987637        1.3320119703
  O        40.6522987323       33.7693143275        2.0652973071
  O        18.2556152986        1.3761529579        0.0019388796
  O        44.6221673504       35.1006164300       14.7536355709
  O        24.2053729771        0.0000767926        1.3258833576
  O        22.7530546827        2.0583125705        2.5894420604
  O        21.6246353098        3.5963518975        1.3483522371
  O        27.5022742659       18.7520613760       13.4129644062
  O        26.7309849103       17.0004738960       14.6547646727
  O        30.6637474285       19.4066581289        0.0781715402
  O        33.5399938595       16.3398800002       13.5851567181
  O        34.2703840293       18.1680303685       14.7299069400
  O        29.5680631884       17.0724303601       14.5735655904
  O        33.5517978078       16.3418027407        2.4205671159
  O        34.2978634994       18.2392796993        1.4103097577
  O        31.6505765518       18.3126818084        2.1692553395
  O        30.3182289813       15.1577383434        0.0881538606
  O        28.5531481611       21.0339045698       14.8983172712
  O        28.5149700010       20.9526897601        1.4181131612
  O        27.4579303173       18.6800721582        2.6645184879
  O        26.6933491065       16.9309572980        1.4189374857
  O        13.1474828816       18.6935528839        2.5918967245
  O        13.9186941376       16.9159568479        1.4093623180
  O        50.5952162547       19.3501783651        0.0252980261
  O        47.6833248451       16.3270482020        2.4221356011
  O        46.9515618802       18.1756964040        1.3297439983
  O        11.0689644468       17.0158373801        1.4948344656
  O        47.6740283000       16.3362048787       13.6470860669
  O        46.9257543024       18.2358996343       14.6584084078
  O        49.5679089667       18.3177319539       13.9769041574
  O        10.3183243829       15.1003032804        0.0021072434
  O        52.6707249049       21.0279904563        1.2469444780
  O        12.1468054315       20.8910463399       14.6679477340
  O        13.1081057107       18.6137248788       13.3201740283
  O        13.9570327773       16.9867347616       14.6597891764
  O        29.9917967675       14.4397455932        2.7315044734
  O        28.0883606159       14.6553226020        1.4977610542
  O        32.0797332959       16.8698378408        0.0743506483
  O        30.9605543308       20.9391833231        2.4252273399
  O        32.9423539853       20.6044608531        1.3481077545
  O        29.5661250380       17.0755998962        1.5794421890
  O        30.8741781021       20.9480072702       13.6585848935
  O        32.8791081183       20.5891579742       14.6649322010
  O        31.6527691867       18.3102854102       13.9919037955
  O        28.2925386596       18.6805663512        0.0795758636
  O        32.4878882591       14.2134413944        1.3297403848
  O        32.4019505722       14.2330233094       14.8093581808
  O        29.9088389087       14.4414673199       13.4922567212
  O        28.0081877888       14.6498578997       14.7311439236
  O        17.8892537835        1.9666612266        2.6679408180
  O        18.9562579835        3.5271922369        1.4131034229
  O        39.1686806070       34.1387729104        0.0023838812
  O        43.2802006363       33.0589661852        2.3368122318
  O        42.0344812464       31.5064881002        1.2467498044
  O        20.3177863093        1.0368029868        1.4853548918
  O        43.2760078788       33.1825934401       13.5698381559
  O        42.0052166032       31.5841342102       14.5779150403
  O        40.5792387985       33.7752757953       13.9310380014
  O        22.3674804100        1.3847240111        0.0030704462
  O        36.6727937606       35.0997972862        1.2383827060
  O        16.4456220385        0.0644477715       14.6632366408
  O        17.9365393945        2.0435355309       13.3212680015
  O        18.9190685928        3.5932147344       14.6608862347
  O        29.7857704292       18.8966469425       12.0631453493
  O        29.7091345234       18.7496565589        4.0940586221
  O        31.1720946025       16.4743750236       12.0798033923
  O        31.2580918439       16.3416517097        4.0794330485
  O        32.1775534309       16.9190185145        9.7557546049
  O        27.1650980035       17.5839741034       10.0757553931
  O        30.4746768537       15.8376388436        6.5831408808
  O        31.6099920883       18.0966920182        7.3332346225
  O        30.9733366645       19.3487875854        9.6371141085
  O        29.0541749613       18.1193600176        6.5845183905
  O        39.4568984762       35.2439216674       11.9968640467
  O        19.1412751661        0.0043612563        3.9956124354
  O        41.9694514307       35.1725103948       12.0821364127
  O        21.6911506724       -0.0694168402        3.9010299053
  O        51.3647304977       18.6141966228       12.0003859967
  O        10.7509678382       18.7473741885        3.9099734072
  O        50.0791403101       16.4129452167       12.0866567267
  O         9.5242609391       16.4830135097        3.9963441697
 Zr         9.2941698968       16.0528547499       14.1769878309
 Zr        49.8343451818       16.0066616943        1.7519140290
 Zr        22.0735731088        0.0301928288       14.1838561212
 Zr        42.4612476723       35.1535387931        1.8061864835
 Zr        29.6150690219       19.1173708416       14.2742725166
 Zr        29.5895636724       19.1619659928        1.8807914002
 Zr        11.0356206234       19.0523899426        1.8323484510
 Zr        11.0416366680       19.1550870795       14.2466043465
 Zr        31.3441633181       16.0951968658        1.8769401025
 Zr        31.3715117985       16.0385889712       14.2476526615
 Zr        18.6013454540       -0.0014087039        1.7684153898
 Zr        18.5067617235       -0.0073970709       14.2087678404
 Zr        12.2988639405       16.3231830411       15.9850274950
 Zr        48.6133919522       18.8325326083        0.0150958975
 Zr        20.3157512412        2.4736152910       15.9856334021
 Zr        40.6438035658       32.6871282245       15.9732739843
 Zr        28.3484044838       16.3505384610        0.0864942581
 Zr        32.6307499615       18.8392557623        0.0531040278
  H        32.3438885225       18.6505911825        7.6571907536
  O        33.4200706332       15.0958666569        5.6643272037
  H        32.8506392365       15.0483965060        6.4541285681
  H        32.9950768130       15.8054765701        5.1425030363
  O        28.3792126760       19.5700904773        8.7527890859
  H        27.8725802669       19.7604820730        7.9415143491
  H        27.8693313934       18.8624193309        9.2541467353
  O        30.4558192850       20.8109338443        6.1504597281
  H        30.3295494167       20.1545099138        5.4268834350
  H        31.2092447141       21.3454131289        5.8529039942
  H        27.8367556754       16.9552289761       10.4005432755
  H        30.8639381218       15.1404004100        8.8879278855
