     583
 i =      182, E =     -4830.5637388523
  C        11.8579527563       14.0536462710       13.7365534088
  C        12.4555398309       12.8902596554       13.0183874209
  C        11.7041621593       12.1720306561       12.0760080445
  C        12.2804695211       11.1097891631       11.3835619757
  C        13.6207126531       10.7392809115       11.6119599854
  C        14.3534890700       11.4420034946       12.5863481654
  C        13.7806044522       12.5069521876       13.2779260185
  C        14.2604959319        9.6488133561       10.8384929027
  C        14.2562032649        9.6568702242        9.4167706236
  C        13.7428564540       10.7588707731        8.6627899979
  C        49.1263475871       21.2333711050       13.8746583408
  C        48.5495570728       22.4011356729       13.1472616883
  C        49.3003706931       23.0699062955       12.1678609647
  C        48.7334940198       24.1090570864       11.4346414533
  C        47.4022672984       24.5091752904       11.6618226815
  C        46.6702954963       23.8585604559       12.6734252663
  C        47.2326802342       22.8135598896       13.4027365790
  C        46.7722783535       25.5870919437       10.8646159523
  C        46.7617779419       25.5577926106        9.4428570371
  C        47.2621804340       24.4428564172        8.6994314009
  C        14.8605252524        8.5707217501        8.7035172828
  C        14.8911564949        8.5967669467       11.5151253641
  C        49.1128814792       21.2033136282        2.1502830774
  C        48.5274743286       22.3644234814        2.8779898758
  C        49.2674758309       23.0265617450        3.8693674222
  C        48.6912038310       24.0611761039        4.6008093642
  C        47.3601454463       24.4565591238        4.3639314722
  C        46.6387821665       23.8100039572        3.3421718889
  C        47.2122267718       22.7739192312        2.6105032177
  C        46.7219790575       25.5318472896        5.1548088030
  C        46.7340882360       25.5285686248        6.5764967265
  C        47.2499706363       24.4295515556        7.3328721462
  C        40.6221454187       17.0895697668        7.3085409841
  C        40.6377009476       17.1914855635        4.4741838871
  C        11.8825402295       14.0865902742        2.2903659559
  C        12.4718990580       12.9103239357        2.9944497395
  C        11.7144446060       12.1774488562        3.9208100624
  C        12.2809473203       11.0950037611        4.5894121826
  C        13.6195509853       10.7208161116        4.3572413383
  C        14.3573397547       11.4358142921        3.3958665325
  C        13.7919463182       12.5169328919        2.7230313361
  C        14.2533544636        9.6242781697        5.1278159811
  C        14.2524636407        9.6444616940        6.5496685926
  C        13.7423184669       10.7532917017        7.2967370266
  C        22.5127390798        3.2443943125       13.7484636988
  C        23.2294978013        4.3495952190       13.0501551980
  C        24.2269818678        4.0688433405       12.1046932932
  C        24.8558827184        5.1078435155       11.4233889562
  C        24.5031956379        6.4499703515       11.6675889083
  C        23.5341852764        6.7223135988       12.6503825217
  C        22.9005643711        5.6850735562       13.3299707584
  C        25.1094552953        7.5560783572       10.8913311419
  C        25.0772029901        7.5501881862        9.4699109591
  C        24.3714450020        6.5520741436        8.7256440461
  C        38.3033082142       31.9296398905       13.8437089487
  C        37.5753026016       30.8396212527       13.1336269914
  C        36.6169518690       31.1422992294       12.1543899203
  C        36.0017885828       30.1210125554       11.4358006689
  C        36.3301029406       28.7723111574       11.6754300380
  C        37.2589090498       28.4771059804       12.6909863298
  C        37.8783702665       29.4970777990       13.4081820476
  C        35.7290997301       27.6798011973       10.8785743751
  C        35.7603253730       27.6943223497        9.4573745406
  C        36.4669807844       28.6960851073        8.7201017993
  C        25.6992961858        8.6197391305        8.7486380375
  C        25.7113055468        8.6291149191       11.5605407596
  C        38.3287884308       31.9621804321        2.1610665524
  C        37.6074776664       30.8887896423        2.9027681080
  C        36.6805742081       31.1971898798        3.9101460525
  C        36.0711069004       30.1783097906        4.6396133787
  C        36.3743090030       28.8258312951        4.3849800468
  C        37.2787135617       28.5274388533        3.3474908199
  C        37.8904382141       29.5428142445        2.6194008422
  C        35.7671306907       27.7263713160        5.1690932666
  C        35.7798418451       27.7180654016        6.5910027315
  C        36.4760850813       28.7076525633        7.3536136037
  C        46.1361187958       26.6212608369        7.2865721721
  C        46.0877729030       26.5799709270        4.4786642045
  C        22.4598155410        3.2555948829        2.2632111530
  C        23.1515953681        4.3645853235        2.9878958303
  C        24.1524396117        4.0789718509        3.9300843257
  C        24.7785097553        5.1093890842        4.6273101240
  C        24.4238087355        6.4549676441        4.4046034862
  C        23.4457319147        6.7338574885        3.4312465190
  C        22.8149189505        5.7036576136        2.7347109695
  C        25.0545442745        7.5533829338        5.1782003545
  C        25.0497658532        7.5478832456        6.6010556957
  C        24.3567622828        6.5518011458        7.3590246087
  C        26.6138253095       17.8559045218       13.7859365658
  C        25.3101948187       17.8895229869       13.0488819290
  C        25.0143112214       18.9326478868       12.1531208412
  C        23.8051397052       18.9422084071       11.4565845443
  C        22.8516438824       17.9216703955       11.6447177955
  C        23.1437961721       16.9003845095       12.5685058734
  C        24.3569068078       16.8785317205       13.2549702970
  C        21.5762972919       17.9122318145       10.8831526974
  C        21.5795522852       17.9114811421        9.4615736627
  C        22.7874639732       17.8118952682        8.7010315449
  C        34.4207864871       17.2213284804       13.8794591968
  C        35.7162872158       17.1600326779       13.1544674269
  C        35.8882357433       16.2664590366       12.0834014204
  C        37.0712716711       16.2613667924       11.3553088517
  C        38.1289389750       17.1408060269       11.6815829953
  C        37.9606822473       18.0006763268       12.7905857213
  C        36.7703217264       18.0193636682       13.5074083480
  C        39.3729519288       17.1736598125       10.9057632883
  C        39.3667736706       17.1545716274        9.4496586988
  C        38.1865788547       17.3088544415        8.7080746032
  C        20.3325444907       17.9268806321        8.7542669268
  C        20.3534689526       17.9036341221       11.5683306603
  C        34.4504058402       17.2309796342        2.1805317134
  C        35.7573783296       17.1169136370        2.8788297851
  C        35.9395755642       16.1953301571        3.9231828531
  C        37.1252142884       16.1927896965        4.6500497361
  C        38.1705442289       17.0912613305        4.3431896093
  C        37.9985424666       17.9664719263        3.2473752092
  C        36.8055344059       17.9900426315        2.5371208497
  C        39.4063665215       17.1397643538        5.1317421182
  C        39.3834594783       17.1355722611        6.5866750631
  C        38.1932492431       17.2940973381        7.3114310735
  C        35.1494373353       26.6388555066        7.2951324136
  C        35.1747258482       26.6570967271        4.4861880529
  C        26.5730795120       17.8242451685        2.3305246093
  C        25.2570559980       17.8777155100        3.0320880946
  C        24.9837169989       18.8993696384        3.9539028654
  C        23.7650124926       18.9287050364        4.6258224201
  C        22.7912105582       17.9361079567        4.3988785375
  C        23.0575733173       16.9396034401        3.4426367981
  C        24.2768395456       16.9084656013        2.7689242927
  C        21.5283326151       17.9184949805        5.1732173324
  C        21.5540606510       17.9115782024        6.5944502474
  C        22.7749213671       17.8104449934        7.3347604687
  C        14.0451785923       17.8288250165        2.2927937395
  C        15.3506697727       17.8862463447        3.0178575764
  C        15.6073898613       18.8902177967        3.9642249196
  C        16.8169380325       18.9119028980        4.6561535135
  C        17.8029867695       17.9324008414        4.4225670506
  C        17.5510975232       16.9521898529        3.4444087999
  C        16.3407028865       16.9259307180        2.7546558315
  C        19.0726426413       17.9169579799        5.1901515064
  C        19.0724011139       17.9104157175        6.6123358902
  C        17.8657952879       17.8043549714        7.3734004875
  C        46.8027937067       17.2129654324        2.1572215918
  C        45.5089233486       17.1404048263        2.8842309076
  C        45.3284018528       16.2160538222        3.9268131020
  C        44.1487020205       16.2077726685        4.6612172883
  C        43.1040612984       17.1123656798        4.3658367338
  C        43.2784506539       18.0009801707        3.2814931198
  C        44.4660905085       18.0241553533        2.5606096490
  C        41.8619958690       17.1445342065        5.1458187001
  C        41.8696785399       17.1238592512        6.6006798288
  C        43.0538048625       17.2552547526        7.3409831767
  C        20.3193772891       17.9254785288        7.3198171235
  C        20.2963457119       17.9018028498        4.5072291575
  C        46.7820277362       17.2286312804       13.8853107603
  C        45.4790112240       17.1194146195       13.1797345511
  C        45.2864410236       16.1827962761       12.1497975825
  C        44.1038881696       16.1751353518       11.4187275162
  C        43.0643255794       17.0883959917       11.7086630884
  C        43.2442419384       17.9782808841       12.7912530529
  C        44.4357709854       18.0045354597       13.5037625191
  C        41.8292118540       17.1390095062       10.9195499631
  C        41.8527452004       17.1206330458        9.4641894018
  C        43.0451257236       17.2515886223        8.7378292405
  C        46.1538222624       26.6377003865        8.7211111544
  C        46.1620861541       26.6560079381       11.5307738197
  C        14.0442923233       17.8283661613       13.7016817398
  C        15.3653481896       17.8945460550       13.0064301890
  C        15.6468544909       18.9125343263       12.0833214701
  C        16.8762656592       18.9436590504       11.4281924670
  C        17.8519879785       17.9556317421       11.6701393512
  C        17.5764692907       16.9642653652       12.6292443185
  C        16.3491848067       16.9331302454       13.2880843653
  C        19.1204423149       17.9297420757       10.9019417767
  C        19.0978045889       17.9159023136        9.4801701368
  C        17.8778749841       17.8073840800        8.7393998393
  C        28.8047829905       14.0876818890        2.3954878827
  C        28.1917568619       12.9152036571        3.0820961291
  C        28.9182851135       12.1664898907        4.0202146832
  C        28.3169809932       11.0933717478        4.6729994719
  C        26.9768662608       10.7440913056        4.4101956555
  C        26.2728361550       11.4718049727        3.4340304939
  C        26.8709208149       12.5461075115        2.7806493459
  C        26.3077826836        9.6651093977        5.1724697059
  C        26.2993180110        9.6915057786        6.5934373281
  C        26.8066903258       10.8035255125        7.3375765839
  C        32.1801916323       21.2417606412        2.1524360380
  C        32.7707490704       22.4102565205        2.8670068852
  C        32.0265204831       23.0817457980        3.8491174324
  C        32.5980203931       24.1200371034        4.5774483636
  C        33.9298370267       24.5141524368        4.3449830523
  C        34.6562376929       23.8615837668        3.3310028786
  C        34.0872711633       22.8178862782        2.6042826210
  C        34.5607165011       25.5870756294        5.1461028155
  C        34.5553526413       25.5559381589        6.5677536007
  C        34.0475227092       24.4402083658        7.3059908704
  C        25.6900243373        8.6146760690        7.3139823834
  C        25.6686585338        8.6152696274        4.5004196088
  C        32.1050227410       21.2314733513       13.8808145682
  C        32.6981032969       22.3805758708       13.1359426010
  C        31.9620165204       23.0429960835       12.1415846292
  C        32.5436424037       24.0701731939       11.4023711202
  C        33.8745330379       24.4653871040       11.6408563808
  C        34.5934918804       23.8164256608       12.6627431585
  C        34.0169466252       22.7828728496       13.3963542161
  C        34.5153236757       25.5455771267       10.8558574921
  C        34.5311867224       25.5356491306        9.4340555759
  C        34.0348293840       24.4309378992        8.6727309225
  C        40.6134106833       17.0930926358        8.7428408766
  C        40.5983232661       17.2092827767       11.5773266929
  C        28.7500938617       14.0686662392       13.8157871164
  C        28.1408176299       12.9212500359       13.0781739941
  C        28.8710562417       12.2390017124       12.0929586112
  C        28.2913505980       11.1821548847       11.3948763263
  C        26.9647814405       10.7822482322       11.6545465628
  C        26.2523193039       11.4525356240       12.6668315133
  C        26.8308364631       12.5084982896       13.3682488594
  C        26.3217056443        9.6924071906       10.8820827354
  C        26.3068922800        9.7063026948        9.4600813928
  C        26.8071294933       10.8123279271        8.7033815042
  C        18.1354057629        3.1809409653        2.3222314717
  C        17.4061540611        4.2781556429        3.0209557970
  C        16.3908781280        3.9997293375        3.9489229558
  C        15.7431301828        5.0396704124        4.6124536304
  C        16.0945477333        6.3834323378        4.3723003389
  C        17.0833928281        6.6529896670        3.4079907124
  C        17.7325291045        5.6156945971        2.7429293914
  C        15.4701826012        7.4911215123        5.1352787547
  C        15.4858987046        7.4907097913        6.5569760576
  C        16.1876705793        6.4972702192        7.3101783653
  C        42.9459890571       31.8594011971        2.0780537495
  C        43.6463663379       30.7718581839        2.8218356822
  C        44.5919148960       31.0931745844        3.8079328882
  C        45.1976675320       30.0876101008        4.5554908056
  C        44.8712270105       28.7345139654        4.3406760025
  C        43.9454314388       28.4201905341        3.3274086406
  C        43.3365707560       29.4253382295        2.5794344183
  C        45.4888326317       27.6552875644        5.1439040029
  C        45.4933346643       27.6812858265        6.5655868942
  C        44.8062744996       28.6893725987        7.3121872653
  C        14.8567052297        8.5631074834        7.2692812873
  C        14.8745032761        8.5626330503        4.4566347274
  C        42.9465233699       31.9614255707       13.8038049378
  C        43.6916676661       30.8854830406       13.0903709300
  C        44.6560747468       31.1914591955       12.1178630817
  C        45.2776488301       30.1718850000       11.4002275622
  C        44.9540385085       28.8215111697       11.6379476836
  C        44.0208472555       28.5238038380       12.6490122635
  C        43.3925167523       29.5405350618       13.3611411579
  C        45.5631348090       27.7242082638       10.8527043327
  C        45.5337886876       27.7178184089        9.4313974305
  C        44.8275167429       28.7080366619        8.6783745867
  C        35.1384176344       26.6275264268        8.7297401261
  C        35.1252512700       26.6042113247       11.5393292355
  C        18.1485701611        3.2469488122       13.7014893057
  C        17.4298595129        4.3437829361       12.9922760915
  C        16.4150781826        4.0524740848       12.0682554173
  C        15.7667330212        5.0830709054       11.3928420148
  C        16.1208567363        6.4283677759       11.6160493921
  C        17.1116945805        6.7117561813       12.5738717759
  C        17.7594347390        5.6828864963       13.2536284909
  C        15.4904613312        7.5240847973       10.8435648594
  C        15.4967573822        7.5076338408        9.4224314848
  C        16.1939038746        6.5061596076        8.6757814244
  H        10.6722243400       12.4666939229       11.8986073007
  H        11.6942114734       10.5517960504       10.6566096309
  H        15.3901350476       11.1664894312       12.7688981182
  H        14.3494825010       13.0693900978       14.0144188565
  H        13.3752228364       11.6307372019        9.1960960548
  H        50.3236115324       22.7508763092       11.9843582970
  H        49.3204062928       24.6254874838       10.6781844975
  H        45.6400521184       24.1577430690       12.8550049611
  H        46.6607934108       22.2864597960       14.1629117551
  H        47.6308373966       23.5766018284        9.2412553599
  H        14.8708925498        8.5877209558       12.6034209806
  H        50.2880404975       22.7046817444        4.0631338758
  H        49.2700178665       24.5777001934        5.3632774445
  H        45.6086810690       24.1057737098        3.1545684745
  H        46.6505316161       22.2500378313        1.8407247809
  H        47.6089260319       23.5525418611        6.8018916279
  H        40.6438530837       17.1664851158        3.3861397165
  H        48.6856911253       14.0947281860       15.7944463359
  H        10.6810842497       12.4668797806        4.0983841749
  H        11.6890609679       10.5248817421        5.3022625773
  H        15.3924976392       11.1572484903        3.2094185267
  H        14.3639051593       13.0858282798        1.9938317204
  H        13.3748967800       11.6216087612        6.7580182921
  H        47.9300963696       14.2182692428        1.7163100718
  H        47.7800683263       14.3730115591       14.4877622673
  H        49.0795560591       18.5510493473        2.8706884127
  H        10.4141982479       14.1344013143        0.0034330395
  H        24.4869396571        3.0300246072       11.9137246841
  H        25.6292078252        4.8896183012       10.6900445945
  H        23.2544585531        7.7555218691       12.8453910128
  H        22.1300581921        5.8860556269       14.0703031375
  H        23.8110514636        5.7958183373        9.2675390763
  H        36.3793251224       32.1852389916       11.9585786757
  H        35.2582300926       30.3586833841       10.6782442319
  H        37.5198897017       27.4383378745       12.8825554301
  H        38.6213700527       29.2775314620       14.1712024528
  H        37.0335467596       29.4447933008        9.2660845219
  H        25.7509206945        8.6103302544       12.6481732864
  H        36.4588687081       32.2413650178        4.1188642265
  H        35.3470874203       30.4227437332        5.4137326578
  H        37.5247624529       27.4872595521        3.1444224370
  H        38.6115143197       29.3175872737        1.8374414858
  H        37.0505885224       29.4648403203        6.8278426171
  H        46.1086813411       26.5868724567        3.3906125976
  H        44.6683547443       35.1161065723       15.8087466364
  H        24.4307246350        3.0408930121        4.0972748201
  H        25.5586978482        4.8809907166        5.3502941950
  H        23.1603156265        7.7681998231        3.2505382067
  H        22.0440095612        5.9158779159        1.9975242726
  H        23.7841867910        5.7961337392        6.8290541052
  H        44.9541114061       34.3905732207        1.7003126762
  H        44.9020206993       34.2068946518       14.4853464214
  H        40.6661754945       33.2089220607        2.8581645458
  H        23.1506145122        1.9575642481        0.0107056992
  H        25.7360582699       19.7383750263       12.0287446353
  H        23.5817146601       19.7536886156       10.7669564470
  H        22.4190856438       16.1025652612       12.7187261564
  H        24.5937430547       16.0781655299       13.9525138699
  H        23.7318852289       17.7029603982        9.2267011646
  H        35.0749351002       15.5918774872       11.8270730268
  H        37.1978867236       15.5599922440       10.5340796915
  H        38.7611673867       18.6905788583       13.0490740667
  H        36.6241601936       18.7081069902       14.3362865981
  H        37.2468683897       17.4714625352        9.2271355163
  H        20.3610082776       17.9295283456       12.6566287712
  H        35.1385601117       15.5102457356        4.1913207252
  H        37.2529275148       15.4822763702        5.4634340648
  H        38.7928004268       18.6680061574        3.0013948140
  H        36.6485649907       18.6986447537        1.7275064710
  H        37.2583605221       17.4380352998        6.7779767680
  H        35.1446017285       26.6844123798        3.3985933060
  H        28.5123444942       21.0856606540       15.9726531850
  H        25.7385782088       19.6631046934        4.1255525089
  H        23.5522099822       19.7241663896        5.3367772781
  H        22.3130073550       16.1669495155        3.2622358561
  H        24.4996957248       16.1271764351        2.0461876832
  H        23.7083342453       17.7010946408        6.7903779511
  H        29.0042900669       21.7204437751        1.7672013987
  H        29.1474787956       21.7525734976       14.6092972971
  H        32.1492736839       18.5732577695        2.9676521837
  H        27.4089437470       19.0816619868        0.1089672371
  H        14.8483795476       19.6487489322        4.1422861839
  H        17.0126621886       19.6963812959        5.3840578115
  H        18.3022177322       16.1877656462        3.2561659870
  H        16.1332583169       16.1562228757        2.0150443311
  H        16.9237338629       17.6882025422        6.8453671217
  H        46.1337509935       15.5218789238        4.1552344829
  H        44.0136044253       15.4859611300        5.4632982635
  H        42.4857813297       18.7084283526        3.0475465243
  H        44.6198408071       18.7356452094        1.7526569382
  H        43.9961541878       17.3971798599        6.8204528343
  H        20.2894005114       17.9301017080        3.4190860310
  H        46.0833505076       15.4778880257       11.9237706365
  H        43.9638647559       15.4498182726       10.6205648128
  H        42.4550718974       18.6895919996       13.0253413551
  H        44.5956150003       18.7235095983       14.3035900487
  H        43.9816098550       17.3889103383        9.2701043171
  H        46.1984190994       26.6821165540       12.6182483955
  H        52.7404769855       21.0622012868        0.1996377189
  H        14.8925334011       19.6737117291       11.8961174091
  H        17.0932350590       19.7368236446       10.7158743209
  H        18.3195872985       16.1934284402       12.8229954008
  H        16.1214824599       16.1558098097       14.0134810231
  H        16.9451150379       17.6936268385        9.2835869015
  H        52.3203311742       21.6723465275       14.2897687194
  H        52.0113947604       21.7006464436        1.5004293270
  H        49.0632527263       18.6069336313       13.2006744111
  H        13.2465164530       19.0170348909       15.9713513002
  H        29.9524841567       12.4365387554        4.2228367896
  H        28.8813934868       10.5118476196        5.3987967706
  H        25.2377594421       11.2107286615        3.2234874404
  H        26.3254525272       13.1295939678        2.0430393730
  H        27.1700778222       11.6713317294        6.7954997066
  H        31.0047267527       22.7623676719        4.0378637806
  H        32.0170635731       24.6396404809        5.3361308006
  H        35.6872618204       24.1564501116        3.1467160215
  H        34.6545088700       22.2871629530        1.8430897528
  H        33.6910041968       23.5706176969        6.7611049554
  H        25.6961915112        8.5957039770        3.4123640878
  H        30.9363808007       22.7319057793       11.9563342593
  H        31.9674386365       24.5847393473       10.6365217409
  H        35.6240403666       24.1101815515       12.8512490657
  H        34.5776272320       22.2581504778       14.1664075699
  H        33.6690761877       23.5542717046        9.2000925243
  H        40.5919964237       17.1865523949       12.6654462206
  H        32.5257433753       14.1536325330        0.2563345900
  H        29.8938638362       12.5503519068       11.8927520127
  H        28.8669092676       10.6481519872       10.6418659735
  H        25.2265277790       11.1557711281       12.8757430003
  H        26.2781606062       13.0391974265       14.1399014952
  H        27.1701441213       11.6871983915        9.2346394236
  H        33.3001753080       14.2130194924       14.4345789356
  H        33.4032772777       14.3493463764        1.6407552260
  H        32.1402071968       18.5673858613       13.1972907350
  H        30.2352916585       14.1919577605        0.0764687204
  H        16.1192026047        2.9631802848        4.1356350638
  H        14.9539635986        4.8202456740        5.3284128774
  H        17.3652305911        7.6859307062        3.2143884009
  H        18.5141298587        5.8183070974        2.0146052241
  H        16.7543594381        5.7400130370        6.7767017886
  H        44.8282796576       32.1402312189        3.9821340668
  H        45.9375563811       30.3413278440        5.3114246343
  H        43.6827794928       27.3781118831        3.1572448390
  H        42.6000378975       29.1898817758        1.8147295448
  H        44.2308202876       29.4370693845        6.7738953844
  H        14.8502334991        8.5455318657        3.3684282933
  H        44.8995446115       32.2341365912       11.9263185234
  H        46.0244818448       30.4130980180       10.6469152361
  H        43.7641788887       27.4840392989       12.8408145778
  H        42.6462985906       29.3175931344       14.1198150997
  H        44.2688870720       29.4708846923        9.2128825657
  H        35.0828470301       26.6167596774       12.6267923319
  H        36.6051339237       35.1339972709        0.1857744452
  H        16.1443546568        3.0128605256       11.8981861258
  H        14.9747148142        4.8561750947       10.6824293679
  H        17.3946014460        7.7472916319       12.7512914163
  H        18.5418809350        5.8933202289       13.9788581496
  H        16.7653671266        5.7559641012        9.2142501140
  H        36.2786109611       34.4824624934       14.2680084924
  H        36.3811309805       34.2090892173        1.5048248141
  H        40.5807626534       33.2026854774       13.1485671563
  H        17.4707799016        1.9472788756       15.9690445829
  H        28.7992205920       18.9180501088        4.4185577737
  H        28.7749716612       18.8107004962       11.8525622441
  H        31.7797302567       15.8354713815       11.5342269155
  H        30.9759034353       15.3859347526        4.3503490583
  H        28.4441876107       17.2185990719        7.0010637033
  H        29.5633912336       15.0531148031        6.8346922510
  H        30.5144265516       20.1041539727       10.0710634895
  H        32.7246649363       17.6475960023        9.2863753819
  H        26.4863370811       17.7026635632       10.7865089948
  H        18.8534586469        0.8690252822        4.3402899888
  H        40.5279953015       35.2287930782       11.9469005687
  H        42.3241934057       34.4187073839       11.5852947808
  H        22.0879142359        0.6917080045        4.3569534568
  H        11.5975002014       18.7125334973        4.3864459851
  H        52.2646806320       18.4303527550       11.6728706716
  H        49.2536973400       16.4813697109       11.5822317126
  H        10.1512044023       15.7982949135        4.2967718262
  H        50.8493407905       17.6918909185       11.9499139076
  H        10.0456361807       17.3944778987        4.0569607786
  H        20.2147794397        0.0021885188        4.0471089848
  H        39.1837955755       36.1245621405       11.6815429112
 Ni        30.9038993404       17.8873668174       10.9092326783
 Ni        31.1167872752       16.3437904247        8.2421385081
 Ni        30.0944059859       18.8495204868        7.9115199515
 Ni        30.2679218599       17.3274383756        5.4116910116
  O        10.6496696156       14.3651555923       13.4804636002
  O        12.6130753871       14.6575351617       14.5786420865
  O        49.1478670461       16.8460099264       15.9845787051
  O        50.3501721814       20.9363677294       13.6431576818
  O        48.3485388323       20.5936215237       14.6608439710
  O        11.0507509058       17.0543258776       14.4951971781
  O        50.3210838325       20.8818048534        2.4118576749
  O        48.3467634185       20.5869182069        1.3321693301
  O        49.5436017870       18.2486180864        2.0733142244
  O        12.3585716319       18.6244065682        0.0047782578
  O        48.6930742418       14.1485321495       14.7459354952
  O         8.2097979675       14.2101172051        1.3276318914
  O        10.7354056858       14.5066626282        2.6695903795
  O        12.5718252000       14.5828493218        1.3335617403
  O        22.8447250365        2.0432652872       13.4819645397
  O        21.6058116594        3.5925315290       14.5843098208
  O        42.0582549647       34.1373801062       15.9738779761
  O        37.9818758019       33.1378707029       13.5674509289
  O        39.2183206444       31.5763052817       14.6617968491
  O        20.3084675669        1.0395774532       14.4969366136
  O        38.0247259969       33.1858644945        2.4202727302
  O        39.2192773366       31.5838519378        1.3314602437
  O        40.6522901549       33.7693574969        2.0653678051
  O        18.2554908503        1.3761478452        0.0019067296
  O        44.6222334120       35.1005416730       14.7536008300
  O        24.2054071775        0.0000586122        1.3259316238
  O        22.7529426982        2.0577976211        2.5889845528
  O        21.6243530905        3.5960289236        1.3475691251
  O        27.4838986146       18.7508011564       13.4913625927
  O        26.7584637996       16.9334085388       14.6529203972
  O        30.6677201135       19.4083306663        0.0883707847
  O        33.5395452948       16.3389738864       13.5842111104
  O        34.2703204764       18.1690475085       14.7293317054
  O        29.5730856669       17.0660387355       14.5775874487
  O        33.5552829680       16.3427910009        2.4211833695
  O        34.2992410804       18.2420091097        1.4106164958
  O        31.6519510304       18.3127439352        2.1757895879
  O        30.3256050463       15.1590336113        0.0924843095
  O        28.5516916216       21.0381945653       14.8999656355
  O        28.5154712974       20.9551838080        1.4191831821
  O        27.4640206233       18.6755290356        2.6703331721
  O        26.6951556004       16.9304660827        1.4188019327
  O        13.1488785556       18.6931333478        2.5926136488
  O        13.9194303308       16.9159585042        1.4098627378
  O        50.5952336797       19.3501542748        0.0252744974
  O        47.6856653003       16.3260059423        2.4222974986
  O        46.9528334635       18.1754192695        1.3281982034
  O        11.0692527231       17.0157245239        1.4950763727
  O        47.6767401934       16.3352038197       13.6469066677
  O        46.9274547330       18.2354255776       14.6600288126
  O        49.5680137722       18.3178525642       13.9769477485
  O        10.3182891047       15.1003943870        0.0020237681
  O        52.6706275242       21.0278940754        1.2469285364
  O        12.1468333763       20.8910046201       14.6678877285
  O        13.1097498699       18.6133603796       13.3199358486
  O        13.9574964552       16.9864902381       14.6602683393
  O        29.9903409993       14.4388711632        2.7349137649
  O        28.0891372818       14.6538174926        1.4995328355
  O        32.1355632259       16.8608639616        0.0787432267
  O        30.9647979602       20.9483093205        2.4205093609
  O        32.9457454711       20.6033404643        1.3478546695
  O        29.5710371399       17.0789840141        1.5868862334
  O        30.8752258842       20.9508414806       13.6600545537
  O        32.8802020265       20.5886366233       14.6644384955
  O        31.6519144782       18.3085250977       13.9959190988
  O        28.2919138258       18.6784637174        0.0866538682
  O        32.4892899703       14.2118119007        1.3318444848
  O        32.4054179176       14.2244210441       14.8142666800
  O        29.9212212030       14.4407747546       13.4869643498
  O        28.0394572935       14.5920023125       14.7482548148
  O        17.8892845541        1.9666180627        2.6679033609
  O        18.9562494397        3.5271382973        1.4130735660
  O        39.1687420778       34.1388063583        0.0022905630
  O        43.2802012545       33.0589795718        2.3367880488
  O        42.0345234236       31.5065193753        1.2467012218
  O        20.3177757449        1.0368247378        1.4853254934
  O        43.2759961364       33.1825872845       13.5698411099
  O        42.0052404603       31.5841289402       14.5778832639
  O        40.5791477422       33.7751532138       13.9308512998
  O        22.3673282781        1.3845774125        0.0030032731
  O        36.6727722113       35.0997774227        1.2384113578
  O        16.4455535244        0.0642608408       14.6631845468
  O        17.9364695927        2.0433867129       13.3212772454
  O        18.9190496510        3.5931598074       14.6608091661
  O        29.6951186011       18.9078450618       12.1560782175
  O        29.7412007633       18.9752336742        4.1584678134
  O        31.2191840177       16.4128863072       12.0866540052
  O        31.3024316024       16.2656998848        4.0722878493
  O        32.1899604306       16.9209451231        9.6574349139
  O        27.1609124769       17.5758802604       10.0887999958
  O        30.3382061031       15.6157565332        6.6756390936
  O        31.5532930040       17.8842137453        6.9078082782
  O        30.9615182764       19.3443468800        9.6573226458
  O        28.7751359957       18.0282335018        6.5743791435
  O        39.4567529784       35.2438104967       11.9968732147
  O        19.1413689306        0.0045343501        3.9956434542
  O        41.9693220076       35.1722856139       12.0820360883
  O        21.6911967897       -0.0693566307        3.9010105440
  O        51.3649331776       18.6141872497       12.0005017283
  O        10.7511909024       18.7474264753        3.9099849511
  O        50.0799135111       16.4130546003       12.0861996179
  O         9.5245852968       16.4829836695        3.9965455302
 Zr         9.2925014451       16.0529664741       14.1769794518
 Zr        49.8333564654       16.0067500946        1.7517628499
 Zr        22.0734268527        0.0294787034       14.1838780111
 Zr        42.4611051564       35.1530064373        1.8060474085
 Zr        29.6009077584       19.1206638474       14.2956080976
 Zr        29.5938600151       19.1764688539        1.8965786612
 Zr        11.0351114933       19.0521470400        1.8319555959
 Zr        11.0409652389       19.1548817400       14.2469418790
 Zr        31.3617941294       16.0987068167        1.8773767239
 Zr        31.3831974072       16.0316275002       14.2720167254
 Zr        18.6012911343       -0.0014758458        1.7683608324
 Zr        18.5065538557       -0.0077980572       14.2087000981
 Zr        12.2979478728       16.3236115015       15.9848380397
 Zr        48.6118586133       18.8320529653        0.0147529028
 Zr        20.3151461636        2.4731019244       15.9852604613
 Zr        40.6438866305       32.6867796067       15.9731926571
 Zr        28.3593158771       16.3405097042        0.0883357460
 Zr        32.6333206890       18.8448983653        0.0551475108
  H        32.4164677879       18.2980050668        6.7428209290
  O        33.4185841140       15.0968243764        5.6641033398
  H        32.7666032239       14.8493682213        6.3417941012
  H        32.8856428231       15.6555738580        5.0565559013
  O        28.2149796358       19.5778612957        8.6563709075
  H        27.8269463562       19.2774596647        7.8036461072
  H        27.8535826163       18.9163915216        9.3060697997
  O        30.2890499175       20.5071486651        6.4913305152
  H        30.1398641220       20.0800911684        5.5939038231
  H        29.5833998687       21.1677556591        6.5837553566
  H        27.7704661373       16.8992631694       10.4341878358
  H        30.4890398489       15.3889762938        9.1309072124
