     583
 i =      287, E =     -4830.5879778326
  C        11.8586420741       14.0535094524       13.7364829743
  C        12.4561503076       12.8905510652       13.0181982131
  C        11.7045151715       12.1717110738       12.0764192741
  C        12.2809292550       11.1095514816       11.3840233729
  C        13.6214571610       10.7396499986       11.6118866427
  C        14.3545357536       11.4430843761       12.5855286420
  C        13.7816117966       12.5080172431       13.2770793509
  C        14.2610225780        9.6490178283       10.8384686579
  C        14.2562577628        9.6568897208        9.4167589907
  C        13.7430424734       10.7589733548        8.6628224395
  C        49.1267257086       21.2331637896       13.8745910168
  C        48.5499499449       22.4010993545       13.1475390972
  C        49.2999369659       23.0683712420       12.1664732836
  C        48.7329714813       24.1074908462       11.4332775153
  C        47.4024499561       24.5091655557       11.6619577122
  C        46.6715474873       23.8603199868       12.6755253204
  C        47.2340125172       22.8154186924       13.4048756544
  C        46.7722013447       25.5868542467       10.8646695934
  C        46.7611691379       25.5572156074        9.4429050831
  C        47.2610034168       24.4420764250        8.6994144174
  C        14.8602408415        8.5705700168        8.7034904951
  C        14.8918843328        8.5971067684       11.5151112511
  C        49.1131460835       21.2033974016        2.1503297637
  C        48.5277252458       22.3646907130        2.8775640802
  C        49.2669076818       23.0253158578        3.8705757713
  C        48.6905526552       24.0598268527        4.6020790628
  C        47.3601918727       24.4567188978        4.3637323672
  C        46.6398469782       23.8119047194        3.3400988132
  C        47.2134110574       22.7760292789        2.6082733721
  C        46.7217459858       25.5316992075        5.1547592044
  C        46.7334171750       25.5280320864        6.5764702107
  C        47.2487258266       24.4287634277        7.3328599944
  C        40.6198775654       17.0571542394        7.3175890981
  C        40.6363825678       17.0844402994        4.5072155039
  C        11.8830137205       14.0865851100        2.2906218131
  C        12.4722740478       12.9107214942        2.9947951461
  C        11.7146889259       12.1775715660        3.9208955269
  C        12.2811634302       11.0950268135        4.5892657021
  C        13.6199650859       10.7212159779        4.3574604704
  C        14.3579856591       11.4366973297        3.3966255620
  C        13.7926790661       12.5179655989        2.7239890788
  C        14.2535339282        9.6244406491        5.1278666403
  C        14.2523157173        9.6444429735        6.5497082568
  C        13.7424294027       10.7533868631        7.2967743813
  C        22.5128687856        3.2449772537       13.7467064634
  C        23.2292791640        4.3488856286       13.0452086083
  C        24.2268076567        4.0655054840       12.1003059058
  C        24.8574363368        5.1021978362       11.4168833399
  C        24.5068173404        6.4457595598       11.6572943869
  C        23.5369385477        6.7206676008       12.6389201143
  C        22.9017886176        5.6856758908       13.3209838138
  C        25.1175648666        7.5499240984       10.8808235610
  C        25.0960233167        7.5406658587        9.4587519239
  C        24.3941792104        6.5419150646        8.7120137263
  C        38.3016261434       31.9304415693       13.8450739772
  C        37.5689060828       30.8417378301       13.1375791017
  C        36.6056729499       31.1470634823       12.1638950105
  C        35.9849924048       30.1277791118       11.4473391035
  C        36.3133775710       28.7783772069       11.6825538430
  C        37.2467670653       28.4803874487       12.6930972379
  C        37.8712231500       29.4984303476       13.4088669642
  C        35.7090150058       27.6880271198       10.8851179221
  C        35.7383084825       27.7047745900        9.4637289532
  C        36.4428111263       28.7083768581        8.7268420107
  C        25.7234691908        8.6084950520        8.7388747797
  C        25.7136904923        8.6257511546       11.5510372858
  C        38.3286358339       31.9620977760        2.1619866646
  C        37.6060672281       30.8900199480        2.9053456312
  C        36.6759089527       31.2012947455        3.9089942364
  C        36.0630937433       30.1848902047        4.6393105304
  C        36.3659911646       28.8313417625        4.3898240644
  C        37.2745409407       28.5300249493        3.3566382061
  C        37.8894353759       29.5429974541        2.6274968132
  C        35.7545615167       27.7338558403        5.1742486556
  C        35.7617099108       27.7280216306        6.5964970831
  C        36.4536768708       28.7197195144        7.3603202229
  C        46.1354610494       26.6207041026        7.2866033590
  C        46.0878812285       26.5801099142        4.4786990142
  C        22.4633636478        3.2557775117        2.2617017276
  C        23.1636003480        4.3625775047        2.9817390788
  C        24.1693230328        4.0723887235        3.9175324456
  C        24.8040636495        5.0996300263        4.6115818073
  C        24.4533383945        6.4468985985        4.3927503309
  C        23.4708093023        6.7304120648        3.4251618114
  C        22.8315000561        5.7033411253        2.7313723995
  C        25.0898812434        7.5420490075        5.1667339850
  C        25.0825801814        7.5357118294        6.5896048063
  C        24.3856189865        6.5408214777        7.3452353329
  C        26.6042351802       17.8714581973       13.7963748650
  C        25.2960459815       17.9226838346       13.0760054968
  C        25.0455727338       18.9153682420       12.1150526893
  C        23.8380350902       18.9347927022       11.4206928971
  C        22.8446839422       17.9639074895       11.6637222156
  C        23.0916368670       16.9938686546       12.6536785273
  C        24.3012424951       16.9693311315       13.3466487343
  C        21.5749763719       17.9494573417       10.8939360405
  C        21.5778090335       17.9314814105        9.4711511955
  C        22.7848032294       17.8116947142        8.7118801707
  C        34.4277404885       17.2162924155       13.9116303774
  C        35.7175135471       17.1482219823       13.1650142676
  C        35.9021986415       16.1869652421       12.1593189564
  C        37.0848703143       16.1549258238       11.4254540917
  C        38.1125889378       17.0863937323       11.6720252611
  C        37.9279723959       18.0298739868       12.7013494357
  C        36.7450849333       18.0644363611       13.4359968291
  C        39.3664848405       17.0838107532       10.8839389948
  C        39.3620773314       17.0860114935        9.4613342619
  C        38.1548024954       17.1963060250        8.7013681535
  C        20.3316279177       17.9477375526        8.7612071478
  C        20.3491119131       17.9480300459       11.5744815669
  C        34.4466232641       17.2335009228        2.1879758935
  C        35.7512174732       17.1233980238        2.9050002035
  C        35.9722210140       16.1084505925        3.8493923218
  C        37.1592166182       16.0764119177        4.5791364818
  C        38.1566688396       17.0506551700        4.3769029692
  C        37.9449313354       18.0340322994        3.3927700077
  C        36.7553594961       18.0755407949        2.6710677381
  C        39.4054691144       17.0616074575        5.1725766354
  C        39.3826619594       17.0708295716        6.5935702592
  C        38.1645812807       17.1837597701        7.3348743089
  C        35.1303370308       26.6489201502        7.3002949408
  C        35.1646314168       26.6631252913        4.4910934904
  C        26.5745773595       17.8235700486        2.3337523896
  C        25.2604828206       17.8762962017        3.0389222416
  C        24.9888149082       18.8951037514        3.9645657675
  C        23.7710555614       18.9230505083        4.6384417350
  C        22.7951283908       17.9330577557        4.4084362111
  C        23.0603409733       16.9390129542        3.4492096359
  C        24.2790975342       16.9083700340        2.7745631745
  C        21.5310094988       17.9179753877        5.1810624935
  C        21.5547570609       17.9143461852        6.6025797340
  C        22.7733518322       17.8038239084        7.3453526758
  C        14.0473134287       17.8295981600        2.2933575196
  C        15.3526913998       17.8890072184        3.0172950574
  C        15.6076998410       18.8919515047        3.9656858903
  C        16.8170001379       18.9151173092        4.6579542599
  C        17.8060478370       17.9381698234        4.4243653788
  C        17.5560042942       16.9598610451        3.4433655477
  C        16.3460485163       16.9321172691        2.7526394246
  C        19.0748911690       17.9232843226        5.1941079316
  C        19.0730574834       17.9229712047        6.6167549696
  C        17.8656198936       17.8227146962        7.3771305509
  C        46.8033188385       17.2162227633        2.1630751468
  C        45.5116872713       17.1447276192        2.9063887929
  C        45.3102042665       16.1587129062        3.8849539111
  C        44.1274706403       16.1266390737        4.6190070178
  C        43.1149804422       17.0804851205        4.3973183203
  C        43.3137334154       18.0463974939        3.3920694825
  C        44.4974060276       18.0822681661        2.6585607143
  C        41.8609101817       17.0775028895        5.1858944569
  C        41.8665524389       17.0759955027        6.6082741454
  C        43.0748585151       17.1773212346        7.3672891152
  C        20.3193385580       17.9378856568        7.3263021019
  C        20.2998387286       17.9028242755        4.5131259208
  C        46.7827812003       17.2305754754       13.8825374655
  C        45.4790019208       17.1200759411       13.1659787135
  C        45.2621122087       16.1161184634       12.2095357903
  C        44.0737502296       16.0811857809       11.4835018268
  C        43.0705235378       17.0471121283       11.6954953646
  C        43.2780647860       18.0213876745       12.6901589177
  C        44.4676572510       18.0625594567       13.4115606791
  C        41.8228459685       17.0600321526       10.8980093198
  C        41.8468251230       17.0667271300        9.4764196466
  C        43.0653671894       17.1695282759        8.7340794684
  C        46.1532211832       26.6371344187        8.7211579639
  C        46.1623187599       26.6560140660       11.5307999634
  C        14.0450723024       17.8316835920       13.7032343062
  C        15.3653879633       17.9069190070       13.0114520111
  C        15.6378585535       18.9252090434       12.0857043839
  C        16.8663120545       18.9648145729       11.4300206321
  C        17.8498734288       17.9853647577       11.6744116311
  C        17.5839055167       16.9952538474       12.6377086546
  C        16.3574386765       16.9551488341       13.2969429906
  C        19.1177042069       17.9646979263       10.9062371153
  C        19.0956093416       17.9436403035        9.4847515878
  C        17.8766439077       17.8322609559        8.7431232315
  C        28.8100562963       14.0826088514        2.3611868886
  C        28.2091356905       12.9044646126        3.0521888401
  C        28.9415013457       12.1700625807        3.9968043900
  C        28.3492278973       11.0967915231        4.6588588211
  C        27.0122751869       10.7327176453        4.3982423226
  C        26.3031024575       11.4467865823        3.4155736755
  C        26.8918850074       12.5213214587        2.7538445651
  C        26.3476953805        9.6521516425        5.1635838829
  C        26.3349937194        9.6780917549        6.5848903128
  C        26.8382175619       10.7910474062        7.3302282864
  C        32.1800779438       21.2391827083        2.1554293121
  C        32.7692842767       22.4076032601        2.8734078667
  C        32.0230431038       23.0775891115        3.8549639412
  C        32.5906910551       24.1192321928        4.5818388995
  C        33.9211608083       24.5181680792        4.3495392010
  C        34.6498444120       23.8664073385        3.3365114193
  C        34.0842083645       22.8201996429        2.6104766521
  C        34.5484295761       25.5937723763        5.1503919356
  C        34.5387205259       25.5649784779        6.5722492201
  C        34.0288895403       24.4502573870        7.3106416184
  C        25.7220156795        8.6018680583        7.3040464274
  C        25.7083006829        8.6023952137        4.4907523849
  C        32.1004130523       21.2240396068       13.8779924347
  C        32.6868668068       22.3795530568       13.1364508576
  C        31.9471406543       23.0451560387       12.1469647709
  C        32.5253017895       24.0758984523       11.4096429458
  C        33.8564720308       24.4716364553       11.6452683386
  C        34.5788863623       23.8202430414       12.6632278455
  C        34.0057134854       22.7834440329       13.3948133567
  C        34.4951417737       25.5538881200       10.8610344550
  C        34.5099692818       25.5457571110        9.4391571730
  C        34.0133952900       24.4415772699        8.6772737424
  C        40.6090907361       17.0586058549        8.7526617988
  C        40.5914373367       17.0855648405       11.5624080963
  C        28.7495826575       14.0642555754       13.8145742319
  C        28.1396522458       12.9182325226       13.0741615836
  C        28.8763061228       12.2269068010       12.0999424248
  C        28.2984964547       11.1704847596       11.4000889455
  C        26.9671495167       10.7789445932       11.6477527779
  C        26.2471031720       11.4587558438       12.6481569835
  C        26.8237261204       12.5153048028       13.3506935051
  C        26.3289743869        9.6870584446       10.8738788272
  C        26.3254996368        9.6971833815        9.4516365769
  C        26.8303276784       10.8020204533        8.6961634538
  C        18.1354515953        3.1810491955        2.3221629417
  C        17.4061164781        4.2782687754        3.0207560371
  C        16.3903894426        3.9998448314        3.9482507152
  C        15.7426287232        5.0397609223        4.6118055869
  C        16.0944457280        6.3835066934        4.3721171775
  C        17.0837947575        6.6531143732        3.4083382408
  C        17.7329243083        5.6158196720        2.7432407412
  C        15.4700615480        7.4911543957        5.1351840008
  C        15.4853584788        7.4904744447        6.5569016608
  C        16.1869695152        6.4969015973        7.3100786145
  C        42.9459555604       31.8595181118        2.0779726552
  C        43.6463529115       30.7718515171        2.8218873219
  C        44.5917806322       31.0931808421        3.8080563852
  C        45.1974773729       30.0876305015        4.5557256688
  C        44.8711466935       28.7345558050        4.3407646805
  C        43.9454564442       28.4202090131        3.3274242661
  C        43.3366541246       29.4253555599        2.5793828508
  C        45.4886837002       27.6552429347        5.1439721789
  C        45.4928398100       27.6808753588        6.5656701108
  C        44.8057853087       28.6889441986        7.3122954660
  C        14.8563732997        8.5629626416        7.2692623237
  C        14.8747390986        8.5628976750        4.4565900055
  C        42.9464704281       31.9615992292       13.8038970213
  C        43.6916994757       30.8854712192       13.0904195569
  C        44.6562261818       31.1913672472       12.1180429816
  C        45.2777569978       30.1717796830       11.4003195076
  C        44.9540395846       28.8214519247       11.6380138808
  C        44.0206422015       28.5237856849       12.6488778355
  C        43.3923965573       29.5405632316       13.3610550687
  C        45.5630464820       27.7240339430       10.8527534172
  C        45.5333095224       27.7173258980        9.4314516817
  C        44.8270292761       28.7075709337        8.6784809932
  C        35.1170964009       26.6380650422        8.7351620561
  C        35.1062068887       26.6114534715       11.5451960390
  C        18.1487354099        3.2470682212       13.7014640717
  C        17.4301576097        4.3439155820       12.9922078524
  C        16.4148991775        4.0526546775       12.0686776295
  C        15.7665899959        5.0832888471       11.3932957980
  C        16.1212987596        6.4285246841       11.6159750742
  C        17.1127387287        6.7118932939       12.5731785383
  C        17.7604174534        5.6829779657       13.2529455845
  C        15.4907494628        7.5241964792       10.8435214905
  C        15.4965337598        7.5075096531        9.4223820368
  C        16.1932890643        6.5057992669        8.6756861552
  H        10.6724186691       12.4659023742       11.8992988764
  H        11.6946478282       10.5511089535       10.6574457505
  H        15.3915105096       11.1683664512       12.7674142702
  H        14.3510281411       13.0711465767       14.0126243312
  H        13.3759914823       11.6310926981        9.1961168366
  H        50.3226378919       22.7483349196       11.9816957892
  H        49.3194061102       24.6227224955       10.6756392718
  H        45.6420562469       24.1610733266       12.8587318505
  H        46.6630217446       22.2901926765       14.1669999234
  H        47.6294392354       23.5756592656        9.2411058177
  H        14.8722670011        8.5883784506       12.6034211556
  H        50.2868934110       22.7023512023        4.0656071533
  H        49.2689129924       24.5752285797        5.3656438536
  H        45.6104908663       24.1092349871        3.1509117622
  H        46.6525901784       22.2538860620        1.8366934764
  H        47.6073873036       23.5515839602        6.8019820158
  H        40.6423022221       17.0563661471        3.4192340215
  H        48.6871123020       14.0949345251       15.7948984401
  H        10.6812113599       12.4666609505        4.0982442655
  H        11.6892993908       10.5246440583        5.3019143048
  H        15.3934060856       11.1587468289        3.2107167290
  H        14.3650904431       13.0873222437        1.9955031821
  H        13.3755498813       11.6219699879        6.7581223891
  H        47.9301683045       14.2180548400        1.7157698568
  H        47.7798850897       14.3733826138       14.4901561098
  H        49.0828823415       18.5519939219        2.8721230306
  H        10.4158389792       14.1343849106        0.0037696671
  H        24.4861555541        3.0260849042       11.9117952100
  H        25.6314008243        4.8807501415       10.6851673389
  H        23.2579344290        7.7545219674       12.8316863900
  H        22.1313308536        5.8899905417       14.0605065049
  H        23.8304260513        5.7866309890        9.2518076014
  H        36.3685327480       32.1906017990       11.9707880699
  H        35.2377215222       30.3676467474       10.6941301425
  H        37.5074948960       27.4409849843       12.8815266055
  H        38.6176035312       29.2767275591       14.1679764724
  H        37.0069500512       29.4586650768        9.2731585273
  H        25.7449998409        8.6109437334       12.6390172724
  H        36.4537483694       32.2461075467        4.1139872740
  H        35.3361778321       30.4323952129        5.4097434202
  H        37.5209001303       27.4892006252        3.1572750062
  H        38.6129336570       29.3148287907        1.8485866067
  H        37.0271323899       29.4783618986        6.8354988552
  H        46.1093267165       26.5875175712        3.3906630855
  H        44.6683432191       35.1161577272       15.8088194510
  H        24.4442785240        3.0330640623        4.0823981948
  H        25.5872088601        4.8672847163        5.3301232672
  H        23.1884599571        7.7660574549        3.2470135064
  H        22.0573055892        5.9197910396        1.9988205010
  H        23.8145055093        5.7853356382        6.8134594731
  H        44.9539768405       34.3904575078        1.7002763377
  H        44.9019150495       34.2068993061       14.4854222998
  H        40.6660777572       33.2092274485        2.8583024750
  H        23.1508296504        1.9577427282        0.0098741539
  H        25.8102765661       19.6662554865       11.9292608644
  H        23.6485459294       19.7111006425       10.6824278892
  H        22.3365120670       16.2355030381       12.8502921763
  H        24.5023737650       16.2064447078       14.0953635454
  H        23.7258569359       17.6919152842        9.2414052384
  H        35.1010191688       15.4800447141       11.9577876624
  H        37.2263982655       15.3988152937       10.6563824215
  H        38.7117725092       18.7589558934       12.8961284500
  H        36.5879143779       18.8067299491       14.2152025058
  H        37.2143389942       17.3203219296        9.2305236164
  H        20.3543244827       17.9855951179       12.6624236275
  H        35.2008577846       15.3572330615        4.0082214775
  H        37.3266633964       15.2889579575        5.3111479763
  H        38.7097698932       18.7904698186        3.2293657300
  H        36.5704617570       18.8536520386        1.9343723372
  H        37.2320162237       17.2954487083        6.7892656059
  H        35.1384824446       26.6886502840        3.4033461527
  H        28.5133167876       21.0826743002       15.9674470938
  H        25.7435460624       19.6588921184        4.1367486492
  H        23.5600092803       19.7161994026        5.3524879545
  H        22.3148816662       16.1677214272        3.2666532506
  H        24.5006169946       16.1287657290        2.0495754379
  H        23.7055865925       17.6796834337        6.8020756142
  H        29.0052196714       21.7205364201        1.7661723229
  H        29.1478256814       21.7510548120       14.6093864904
  H        32.0983840029       18.5252629722        3.0016265769
  H        27.4107952304       19.0825732571        0.1039832782
  H        14.8475183112       19.6489308169        4.1452424518
  H        17.0104399460       19.6991918812        5.3868847515
  H        18.3089249762       16.1976445376        3.2533111693
  H        16.1418504043       16.1632763270        2.0112161400
  H        16.9237707382       17.7047908827        6.8492333506
  H        46.0978565351       15.4305686708        4.0636357899
  H        43.9732454364       15.3539866788        5.3690572887
  H        42.5405034054       18.7913264105        3.2158845452
  H        44.6655918431       18.8424339060        1.8991920408
  H        44.0163777983       17.2930105356        6.8380522651
  H        20.2949999486       17.9285196150        3.4248740365
  H        46.0406980791       15.3766986353       12.0363100499
  H        43.9102633770       15.3011188819       10.7430804264
  H        42.5096667639       18.7723537918       12.8617547161
  H        44.6467497516       18.8340028380       14.1565579047
  H        43.9998477242       17.2779769980        9.2770113398
  H        46.1992164589       26.6825762081       12.6182431627
  H        52.7410823422       21.0626386186        0.1997479273
  H        14.8771052381       19.6794608412       11.8969681689
  H        17.0768902102       19.7575427544       10.7153419404
  H        18.3345920345       16.2323382601       12.8335288223
  H        16.1368021061       16.1781753722       14.0248567931
  H        16.9430401129       17.7218651604        9.2865456740
  H        52.3222520978       21.6732222752       14.2893063807
  H        52.0132157843       21.7020444464        1.5007840399
  H        49.0668072320       18.6073720990       13.1990179039
  H        13.2473418743       19.0164687522       15.9720610146
  H        29.9720320971       12.4568530300        4.1965975150
  H        28.9184638336       10.5262090318        5.3896303346
  H        25.2704287542       11.1753100437        3.2062993655
  H        26.3410905585       13.0946854443        2.0121988167
  H        27.2024749777       11.6588943707        6.7885927582
  H        31.0024607240       22.7546750304        4.0443835538
  H        32.0069316267       24.6381160990        5.3388923250
  H        35.6796842100       24.1649831023        3.1514584092
  H        34.6524213182       22.2920039098        1.8482100278
  H        33.6727815482       23.5808902664        6.7653271720
  H        25.7368564842        8.5835736684        3.4026954025
  H        30.9209548508       22.7347636601       11.9637339316
  H        31.9458396029       24.5925334585       10.6476303590
  H        35.6094670559       24.1149398358       12.8501091960
  H        34.5688032577       22.2569441602       14.1618930916
  H        33.6458195123       23.5655813881        9.2045166553
  H        40.5847423824       17.0545758231       12.6503006494
  H        32.5159270282       14.1502287994        0.2633469361
  H        29.9038679648       12.5295316527       11.9118059474
  H        28.8786551048       10.6292934394       10.6557778486
  H        25.2170710120       11.1695728332       12.8465776276
  H        26.2651533517       13.0538770204       14.1126980355
  H        27.1871756318       11.6791950645        9.2280687203
  H        33.3062527787       14.2204894696       14.4492071181
  H        33.4074520665       14.3765780588        1.6208996649
  H        32.2052231146       18.5341110223       13.2315332827
  H        30.2248048426       14.1921941652        0.0836161682
  H        16.1184140651        2.9633211592        4.1346628875
  H        14.9531799813        4.8203399188        5.3274569222
  H        17.3661525222        7.6860103748        3.2152145558
  H        18.5149745936        5.8185339976        2.0154211284
  H        16.7535174386        5.7395546823        6.7765741034
  H        44.8279844670       32.1402706537        3.9823164161
  H        45.9373011216       30.3414025972        5.3117073438
  H        43.6829015924       27.3781249744        3.1571792391
  H        42.6001582416       29.1900080000        1.8146051159
  H        44.2305137140       29.4367723791        6.7739868064
  H        14.8509802802        8.5461409447        3.3683680535
  H        44.8997401937       32.2340489335       11.9265414250
  H        46.0246324582       30.4130322708       10.6470574810
  H        43.7637621816       27.4840525076       12.8405342822
  H        42.6459972753       29.3177508953       14.1195946833
  H        44.2685554171       29.4704936313        9.2130503091
  H        35.0658318953       26.6222057285       12.6327582303
  H        36.6052157799       35.1341900712        0.1856882497
  H        16.1437481185        3.0130857314       11.8990135960
  H        14.9742203054        4.8564660913       10.6832497677
  H        17.3963175573        7.7473538232       12.7500119154
  H        18.5433425842        5.8934281129       13.9776586988
  H        16.7648098119        5.7556128832        9.2141121248
  H        36.2788763507       34.4824552919       14.2681542581
  H        36.3812965074       34.2090208752        1.5045749773
  H        40.5802423100       33.2027841678       13.1485264892
  H        17.4710407786        1.9476142949       15.9691245974
  H        28.8167410039       18.7872543242        4.3807118635
  H        28.8482700776       18.3550219510       11.8926674110
  H        31.5817796622       15.6221068431       11.5978974583
  H        32.0675268140       15.8358389463        4.5128596844
  H        28.6703299397       17.1025357249        7.1880707094
  H        30.2475165783       14.9250406553        6.9686070922
  H        30.3734704687       20.0443395869       10.2389180518
  H        32.9708678506       17.7861694643        9.3167133844
  H        18.8536724408        0.8690307123        4.3404188397
  H        40.5279957236       35.2289365476       11.9468769421
  H        42.3243127711       34.4190578677       11.5852361620
  H        22.0878012698        0.6920054740        4.3568714610
  H        11.5970428221       18.7127245033        4.3873734151
  H        52.2650473983       18.4310971189       11.6725560079
  H        49.2559541023       16.4764403038       11.5788650369
  H        10.1503914421       15.7982707572        4.2979123840
  H        50.8500996964       17.6924042905       11.9491524935
  H        10.0461247138       17.3945909075        4.0570566121
  H        20.2149863237        0.0022527590        4.0470954098
  H        39.1837861242       36.1244420660       11.6812036082
 Ni        31.0304667397       17.8693261659       10.9125564496
 Ni        31.0271799530       16.5490893967        8.7397123634
 Ni        30.1411845464       18.9158812777        7.9922922444
 Ni        30.3968900546       17.3043851587        5.4969908964
  O        10.6498765360       14.3651249031       13.4807684890
  O        12.6131217810       14.6575699777       14.5787938050
  O        49.1477422635       16.8459975661       15.9846147581
  O        50.3502166142       20.9359437498       13.6430364144
  O        48.3484963456       20.5932563964       14.6608556951
  O        11.0514570267       17.0538781489       14.4956145223
  O        50.3209323646       20.8816084937        2.4119098993
  O        48.3466921370       20.5866415189        1.3321635614
  O        49.5436593004       18.2484620754        2.0732820929
  O        12.3589447340       18.6245787154        0.0048495095
  O        48.6932088159       14.1486552464       14.7461699410
  O         8.2099388095       14.2103659683        1.3275843019
  O        10.7354051888       14.5067852220        2.6694445903
  O        12.5718430323       14.5828430972        1.3335753069
  O        22.8447349287        2.0432526310       13.4818225423
  O        21.6065678805        3.5930052781       14.5834994306
  O        42.0582442121       34.1374621846       15.9738717603
  O        37.9816982989       33.1387630568       13.5676579288
  O        39.2179477127       31.5762846387       14.6614288914
  O        20.3085678131        1.0399136690       14.4970888302
  O        38.0246994405       33.1859726816        2.4202526677
  O        39.2187503678       31.5834103500        1.3320283166
  O        40.6522986670       33.7694002835        2.0653295347
  O        18.2556261208        1.3763032536        0.0018989303
  O        44.6222081919       35.1005638678       14.7536415492
  O        24.2054122635        0.0000026442        1.3258784602
  O        22.7531971405        2.0574019185        2.5887717659
  O        21.6250420632        3.5966086457        1.3486766934
  O        27.4834408550       18.7551192137       13.5022325771
  O        26.7589738967       16.9319752978       14.6514845267
  O        30.6654545845       19.4065123488        0.0827076798
  O        33.5503501302       16.3259752555       13.6574430796
  O        34.2775230248       18.1819898779       14.7373805262
  O        29.5719931435       17.0666743168       14.5783020791
  O        33.5594131508       16.3397394264        2.4224327255
  O        34.3031799470       18.2407780289        1.4159704217
  O        31.6508624360       18.3180055792        2.1654992051
  O        30.3217231337       15.1584086192        0.0910478739
  O        28.5524885481       21.0362321239       14.8984309691
  O        28.5161688863       20.9544301542        1.4207760387
  O        27.4682381477       18.6742337199        2.6731172863
  O        26.6941732404       16.9329313556        1.4199219414
  O        13.1489977874       18.6930004835        2.5925089053
  O        13.9197844794       16.9163110615        1.4103207264
  O        50.5957118077       19.3500802182        0.0255438459
  O        47.6837663071       16.3267381928        2.4221864471
  O        46.9501750105       18.1753544130        1.3309798402
  O        11.0697135687       17.0155570835        1.4947377613
  O        47.6749989696       16.3359226048       13.6477241801
  O        46.9244946650       18.2356792204       14.6578002608
  O        49.5682866613       18.3176872281       13.9771651903
  O        10.3186494625       15.1002557639        0.0021759299
  O        52.6707358570       21.0278599247        1.2469263677
  O        12.1468192721       20.8911788258       14.6681472673
  O        13.1078121160       18.6138301276       13.3205570348
  O        13.9574047467       16.9871499117       14.6600325748
  O        29.9968135103       14.4332847685        2.6693848336
  O        28.0748110177       14.6592477053        1.4882038917
  O        32.1349634934       16.8568484520        0.0960509044
  O        30.9640350259       20.9466163496        2.4220847620
  O        32.9453738207       20.6052133078        1.3481305729
  O        29.5687040543       17.0772542352        1.5887689654
  O        30.8710374535       20.9369472328       13.6532451106
  O        32.8769474159       20.5866457948       14.6623383332
  O        31.6788550572       18.2638212794       14.0005415516
  O        28.2935675587       18.6783400459        0.0861431473
  O        32.4906103397       14.2133635144        1.3350646242
  O        32.4066855867       14.2157661523       14.8170130058
  O        29.9203174064       14.4369817956       13.4864297690
  O        28.0382937691       14.5894837898       14.7446232002
  O        17.8892910225        1.9666824813        2.6678857417
  O        18.9563392949        3.5271790152        1.4130398542
  O        39.1686507188       34.1388404305        0.0023381996
  O        43.2801739898       33.0589666913        2.3367874428
  O        42.0344971015       31.5064844307        1.2467484858
  O        20.3178193252        1.0369341057        1.4850412274
  O        43.2760420258       33.1825722701       13.5697646231
  O        42.0052436426       31.5841435397       14.5779019973
  O        40.5790813913       33.7751060481       13.9309110724
  O        22.3674537803        1.3848423049        0.0030487014
  O        36.6727865570       35.0998120341        1.2383771571
  O        16.4455976787        0.0644209691       14.6632477183
  O        17.9365065190        2.0434402787       13.3213153491
  O        18.9191973655        3.5931388527       14.6608305395
  O        29.6734271386       18.8301987821       12.1398997290
  O        29.7658207547       18.9016432244        4.1691646629
  O        31.2552783076       16.3594611439       12.1430582824
  O        31.3420666709       16.3540366705        4.0727900958
  O        32.5279650677       17.0657229845        9.8048362736
  O        30.7579485936       15.7510199231        6.9936171314
  O        31.6401295812       18.1734731504        6.9035547205
  O        30.9190993985       19.4096718434        9.7349743324
  O        28.8959793820       17.9404431396        6.7427344589
  O        39.4567838014       35.2438080480       11.9968628341
  O        19.1415547386        0.0045891802        3.9956043492
  O        41.9694478595       35.1725991077       12.0820272497
  O        21.6913347549       -0.0693173060        3.9010975656
  O        51.3651325129       18.6143266530       12.0003479074
  O        10.7511625570       18.7471968179        3.9099860734
  O        50.0801608470       16.4128163162       12.0866019561
  O         9.5245596498       16.4831009423        3.9962679505
 Zr         9.2965410431       16.0528174778       14.1772030318
 Zr        49.8363402412       16.0066689559        1.7516326629
 Zr        22.0733793475        0.0301598696       14.1838200514
 Zr        42.4610562808       35.1536980772        1.8061552976
 Zr        29.5936622179       19.1092401654       14.2779117157
 Zr        29.5963820639       19.1739732882        1.8880580140
 Zr        11.0378740876       19.0519527916        1.8327733569
 Zr        11.0435909869       19.1548021112       14.2460319325
 Zr        31.3425494496       16.0968587742        1.9108410994
 Zr        31.3877275057       16.0207983740       14.3039466665
 Zr        18.6013511455       -0.0010154365        1.7684073517
 Zr        18.5067205758       -0.0071665603       14.2087450414
 Zr        12.3020842473       16.3235646587       15.9852254302
 Zr        48.6155800951       18.8327749842        0.0152183199
 Zr        20.3158921686        2.4741334811       15.9854243063
 Zr        40.6436691929       32.6873133441       15.9731985542
 Zr        28.3509141528       16.3405659335        0.0836550008
 Zr        32.6247533511       18.8353553172        0.0647314284
  H        32.1583346593       18.9386150982        6.5975530926
  O        27.7556898815       16.8639479001       10.9018464218
  H        28.5531273798       16.4204743794       10.5268950755
  H        27.4847599422       16.2998883569       11.6455840187
  O        33.1997010715       15.1674308972        5.6771268274
  H        32.4510788665       15.2888694805        6.3181429224
  H        33.7936885829       15.9117405576        5.8687198343
  O        28.0927694755       19.6303471934        8.6676480687
  H        27.8105633426       19.0832676010        7.8956988615
  H        27.8196977481       19.1122521433        9.4507904802
  O        30.2005263319       20.5099435553        6.4153384828
  H        30.0517189646       20.0196619921        5.5435929955
  H        29.4804423779       21.1587564553        6.4769534844
  H        29.9314938905       16.0637303314        9.7107272157
