     583
 i =      262, E =     -4830.6148700068
  C        11.8583620724       14.0535479678       13.7364761211
  C        12.4558352484       12.8904133557       13.0182650442
  C        11.7043085272       12.1719076483       12.0761592265
  C        12.2806361078       11.1096770525       11.3837619663
  C        13.6210147742       10.7394124735       11.6118931445
  C        14.3539281912       11.4424371482       12.5859695125
  C        13.7810761573       12.5074015329       13.2775308901
  C        14.2606824777        9.6488487377       10.8384431227
  C        14.2560935470        9.6567795376        9.4167242474
  C        13.7426768624       10.7587539977        8.6627671303
  C        49.1265757453       21.2332486592       13.8745963794
  C        48.5497957734       22.4010526455       13.1474077709
  C        49.2999833849       23.0687571799       12.1667845389
  C        48.7330075030       24.1078586722       11.4335766984
  C        47.4022849967       24.5090839271       11.6618657565
  C        46.6711078741       23.8597310131       12.6748935109
  C        47.2335871949       22.8148351803       13.4042388031
  C        46.7721024504       25.5868541494       10.8646214367
  C        46.7611427511       25.5572880549        9.4428617471
  C        47.2610066320       24.4421455837        8.6993960316
  C        14.8602311484        8.5705410381        8.7034521203
  C        14.8915508623        8.5969137302       11.5150660212
  C        49.1129079485       21.2033728520        2.1504137430
  C        48.5274337650       22.3645511186        2.8777264887
  C        49.2668680094       23.0258591749        3.8700972329
  C        48.6904430453       24.0603549248        4.6015587918
  C        47.3597507568       24.4564825143        4.3638163788
  C        46.6390375572       23.8108725571        3.3409690421
  C        47.2126719799       22.7749854076        2.6092123835
  C        46.7213541040       25.5315445457        5.1547841262
  C        46.7332575281       25.5280375680        6.5764796318
  C        47.2486755806       24.4288074811        7.3328446255
  C        40.6195903935       17.1179910515        7.3080036091
  C        40.6345796508       17.1207861193        4.4983416591
  C        11.8827002063       14.0865075574        2.2904869373
  C        12.4719173666       12.9104405615        2.9945441567
  C        11.7144073263       12.1774836800        3.9208415653
  C        12.2808684880       11.0949560717        4.5892866369
  C        13.6195659910       10.7209133061        4.3573021444
  C        14.3574464747       11.4360949136        3.3961219003
  C        13.7921327487       12.5173071139        2.7234024762
  C        14.2532425871        9.6242468806        5.1277876931
  C        14.2521351349        9.6443202882        6.5496383662
  C        13.7420649314       10.7531744698        7.2967176588
  C        22.5125685227        3.2452516485       13.7468891300
  C        23.2276938346        4.3505106336       13.0459109778
  C        24.2250339031        4.0698157803       12.1000609726
  C        24.8533973318        5.1084326702       11.4173148472
  C        24.5007996549        6.4511470208       11.6594869925
  C        23.5312688136        6.7233783860       12.6421105773
  C        22.8983573813        5.6865238847       13.3234232822
  C        25.1092551234        7.5569180418       10.8832464553
  C        25.0844637521        7.5491931885        9.4613517851
  C        24.3819987198        6.5503825727        8.7149703370
  C        38.2984192771       31.9284048331       13.8466482703
  C        37.5570270768       30.8405798960       13.1441350517
  C        36.5885472441       31.1495081842       12.1764438655
  C        35.9568961411       30.1331352466       11.4649299881
  C        36.2784690554       28.7815483061       11.6978167611
  C        37.2171582617       28.4798500326       12.7025994094
  C        37.8526034865       29.4953019452       13.4137420142
  C        35.6646499166       27.6952202159       10.8993718046
  C        35.6990723483       27.7120247820        9.4775646029
  C        36.4119990964       28.7116958741        8.7431001626
  C        25.7110366986        8.6172810534        8.7411543124
  C        25.7076797021        8.6316560700       11.5531069726
  C        38.3291178391       31.9604756057        2.1651163728
  C        37.6085149599       30.8887520934        2.9137841669
  C        36.6749161773       31.2016474137        3.9141619720
  C        36.0597994896       30.1872953117        4.6462050224
  C        36.3626412747       28.8323310238        4.4028417953
  C        37.2772384092       28.5292948110        3.3751983894
  C        37.8942853452       29.5403714641        2.6441686060
  C        35.7427244512       27.7367759441        5.1858116458
  C        35.7389075427       27.7334030934        6.6087047049
  C        36.4300629652       28.7227089494        7.3765639997
  C        46.1353966218       26.6207672703        7.2865883996
  C        46.0873612185       26.5798412296        4.4786900229
  C        22.4626154661        3.2559449946        2.2623917512
  C        23.1608386281        4.3635431241        2.9835727454
  C        24.1650033970        4.0750728312        3.9215725394
  C        24.7975232477        5.1034655400        4.6161633559
  C        24.4462738003        6.4503057417        4.3954849414
  C        23.4651705525        6.7320416551        3.4259345305
  C        22.8280149127        5.7038821038        2.7317818347
  C        25.0807249528        7.5470042915        5.1692638972
  C        25.0709420285        7.5428455081        6.5920959201
  C        24.3735131490        6.5485111759        7.3482619800
  C        26.6206304763       17.8582331036       13.7759842324
  C        25.3169401920       17.9039553745       13.0474187920
  C        25.0566254707       18.9044697756       12.0968924448
  C        23.8436348698       18.9250415388       11.4107590241
  C        22.8543368702       17.9496150691       11.6532540208
  C        23.1119262495       16.9718593631       12.6325703086
  C        24.3265432158       16.9454110212       13.3164239159
  C        21.5799534901       17.9375535492       10.8907841506
  C        21.5795144853       17.9169231053        9.4684629426
  C        22.7847352616       17.7925626057        8.7070786400
  C        34.4154873522       17.2266589039       13.8733510988
  C        35.7093456079       17.1715443665       13.1357296637
  C        35.9085411714       16.2151624905       12.1275258673
  C        37.0958263144       16.1953353659       11.4015626535
  C        38.1150464619       17.1333090305       11.6591134094
  C        37.9178179438       18.0693010860       12.6926729596
  C        36.7298670846       18.0922375826       13.4194828468
  C        39.3707085493       17.1413637758       10.8744574787
  C        39.3649278139       17.1516228551        9.4519899869
  C        38.1578706796       17.2699649489        8.6933265828
  C        20.3323653690       17.9353413649        8.7610502817
  C        20.3555145195       17.9405057760       11.5743375111
  C        34.4419850454       17.2348960867        2.1902774769
  C        35.7459917487       17.1293553882        2.9029484619
  C        35.9505921023       16.1579164780        3.8946723206
  C        37.1420715520       16.1392225465        4.6164092294
  C        38.1557190707       17.0835606621        4.3667301165
  C        37.9587651158       18.0237066792        3.3366915432
  C        36.7672815461       18.0518065026        2.6190693768
  C        39.4030312755       17.1091757739        5.1631426324
  C        39.3816374696       17.1332536147        6.5848683279
  C        38.1649687949       17.2572293749        7.3268539861
  C        35.0970519529       26.6588883719        7.3106139692
  C        35.1537996865       26.6657333642        4.5007256136
  C        26.5705926257       17.8236875411        2.3313549087
  C        25.2577954004       17.8689109224        3.0394510658
  C        24.9781441469       18.8941594778        3.9557614702
  C        23.7597562510       18.9180547163        4.6289708590
  C        22.7916935907       17.9183899120        4.4073777408
  C        23.0654433115       16.9169373063        3.4587131191
  C        24.2848131313       16.8901946103        2.7846200274
  C        21.5270338006       17.9027439855        5.1794882401
  C        21.5520751817       17.8987273806        6.6005053797
  C        22.7717441489       17.7848604624        7.3408217106
  C        14.0457772498       17.8284796504        2.2938237697
  C        15.3503361336       17.8848008980        3.0199904243
  C        15.6080397518       18.8894643624        3.9655804744
  C        16.8169949634       18.9100601367        4.6586256918
  C        17.8020613948       17.9287145467        4.4277630573
  C        17.5489776863       16.9477246028        3.4504701174
  C        16.3394682580       16.9227357627        2.7590739081
  C        19.0714546087       17.9121633448        5.1961645317
  C        19.0710651489       17.9125568571        6.6186544704
  C        17.8644044276       17.8159619056        7.3808921677
  C        46.8030963408       17.2168984131        2.1621533544
  C        45.5108411437       17.1504091305        2.9023529276
  C        45.3063175909       16.1742277209        3.8899061391
  C        44.1222510009       16.1523785112        4.6219492027
  C        43.1124271228       17.1063333308        4.3884983279
  C        43.3135228003       18.0605056229        3.3727132076
  C        44.4984944184       18.0867463971        2.6418605464
  C        41.8588968186       17.1166233123        5.1765801886
  C        41.8658354601       17.1274397989        6.5985166176
  C        43.0749233410       17.2302966001        7.3558913160
  C        20.3181237129       17.9247561054        7.3263196374
  C        20.2952963290       17.8894684796        4.5130541509
  C        46.7830388928       17.2333848945       13.8797654293
  C        45.4812192406       17.1330712342       13.1591732752
  C        45.2627027791       16.1417937584       12.1899356834
  C        44.0750919373       16.1197455809       11.4620679244
  C        43.0739948457       17.0858657021       11.6844652069
  C        43.2835651509       18.0472080180       12.6913077062
  C        44.4721754718       18.0758075573       13.4144422645
  C        41.8262995183       17.1108932135       10.8877108496
  C        41.8491953413       17.1238967180        9.4660350561
  C        43.0672401688       17.2254048357        8.7227632637
  C        46.1532455576       26.6372448844        8.7211329645
  C        46.1621821292       26.6559593850       11.5307832606
  C        14.0456955019       17.8318903789       13.7036986219
  C        15.3678320547       17.9069119891       13.0130386288
  C        15.6430047208       18.9252242146       12.0881573234
  C        16.8724388070       18.9635697722       11.4336593007
  C        17.8546654488       17.9827237835       11.6782190342
  C        17.5862939110       16.9929194856       12.6411658595
  C        16.3588728670       16.9542369730       13.2991590979
  C        19.1222205323       17.9587450519       10.9085671447
  C        19.0976912425       17.9351353041        9.4869130021
  C        17.8773678733       17.8262696886        8.7468801440
  C        28.8089068320       14.0819480973        2.3655678446
  C        28.2072900949       12.9086077977        3.0603748343
  C        28.9382601439       12.1690005840        4.0022477792
  C        28.3423528395       11.0967358360        4.6626274297
  C        27.0041948544       10.7377164770        4.4020631425
  C        26.2961507659       11.4568890526        3.4222207118
  C        26.8876988832       12.5311125896        2.7631315812
  C        26.3374396454        9.6575134962        5.1659564195
  C        26.3231271723        9.6852604574        6.5869302227
  C        26.8270169827       10.7983502826        7.3315660348
  C        32.1743066276       21.2349449315        2.1598371313
  C        32.7593181712       22.4040309486        2.8815241577
  C        31.9968078711       23.0980580675        3.8354426152
  C        32.5625153721       24.1407407512        4.5646930059
  C        33.9032473951       24.5214153152        4.3580923485
  C        34.6466334590       23.8466050588        3.3715481395
  C        34.0855279725       22.7968199381        2.6465657145
  C        34.5270204729       25.6010515445        5.1583601628
  C        34.5050767974       25.5769209197        6.5799564262
  C        33.9839002826       24.4665298071        7.3163051058
  C        25.7092694035        8.6098869184        7.3063341304
  C        25.6995700188        8.6070525953        4.4929320606
  C        32.0797252384       21.2029793748       13.8709771783
  C        32.6457285023       22.3667589536       13.1282976306
  C        31.9036670271       23.0246089150       12.1352013443
  C        32.4726498554       24.0670002201       11.4055325453
  C        33.7971256529       24.4815688364       11.6499062890
  C        34.5204036818       23.8373298488       12.6722480006
  C        33.9568507680       22.7913879189       13.3971980615
  C        34.4353374274       25.5680514002       10.8694788503
  C        34.4572846931       25.5603044912        9.4472411596
  C        33.9600178068       24.4583079799        8.6826162402
  C        40.6110434578       17.1217746453        8.7429274498
  C        40.5951938485       17.1370665955       11.5532667070
  C        28.7483811258       14.0631041384       13.8179714413
  C        28.1387203259       12.9201530314       13.0759651498
  C        28.8683948133       12.2420910654       12.0869207261
  C        28.2890366480       11.1856000043       11.3887433353
  C        26.9630905159       10.7837536441       11.6491300988
  C        26.2496221011       11.4530519202       12.6617038951
  C        26.8276540199       12.5078476324       13.3649066946
  C        26.3219825278        9.6935873354       10.8755637925
  C        26.3149636331        9.7054551408        9.4533254088
  C        26.8196320728       10.8101364801        8.6973303758
  C        18.1354424649        3.1808950153        2.3221822299
  C        17.4060413326        4.2781086439        3.0207709880
  C        16.3903303658        3.9996962825        3.9482814288
  C        15.7425371792        5.0396265060        4.6118025900
  C        16.0943365160        6.3833691126        4.3721035480
  C        17.0836508123        6.6529371799        3.4082796345
  C        17.7328312916        5.6156518395        2.7432255686
  C        15.4699712476        7.4910579384        5.1351456471
  C        15.4854388692        7.4904971561        6.5568593650
  C        16.1871940979        6.4970259171        7.3100332741
  C        42.9458408263       31.8594612827        2.0779828276
  C        43.6461235198       30.7717914152        2.8218617538
  C        44.5917098750       31.0930653854        3.8079161313
  C        45.1973498120       30.0874850828        4.5555718377
  C        44.8708679623       28.7344209511        4.3407202713
  C        43.9450549767       28.4201280470        3.3274645672
  C        43.3363205377       29.4252961997        2.5794012451
  C        45.4883775058       27.6551125042        5.1439493921
  C        45.4927551569       27.6809128400        6.5656417704
  C        44.8058652610       28.6890814010        7.3122812530
  C        14.8564051117        8.5629633562        7.2692138032
  C        14.8744414359        8.5626718402        4.4565340789
  C        42.9464467144       31.9615468492       13.8038716317
  C        43.6916859853       30.8854582079       13.0904929546
  C        44.6562592663       31.1913798608       12.1181497705
  C        45.2777747053       30.1718011665       11.4004213545
  C        44.9540416487       28.8214551573       11.6380453383
  C        44.0206334414       28.5237825108       12.6489103915
  C        43.3923854005       29.5405308256       13.3611207779
  C        45.5630314093       27.7240643164       10.8527480788
  C        45.5333909178       27.7174557481        9.4314431236
  C        44.8272041997       28.7077637385        8.6784650526
  C        35.0746390452       26.6491148091        8.7458362590
  C        35.0506702639       26.6225845107       11.5563160344
  C        18.1486856092        3.2469805523       13.7015366151
  C        17.4300759166        4.3438306673       12.9922412136
  C        16.4149407311        4.0525599107       12.0685869181
  C        15.7666136516        5.0831711025       11.3931715101
  C        16.1211909761        6.4284235364       11.6159313907
  C        17.1124626824        6.7117982219       12.5733077736
  C        17.7601729874        5.6829097312       13.2530857710
  C        15.4906360578        7.5241146261       10.8434872617
  C        15.4966261022        7.5075372502        9.4223453721
  C        16.1934924181        6.5059100375        8.6756408518
  H        10.6723038090       12.4663230402       11.8988258101
  H        11.6943345459       10.5514943082       10.6569984604
  H        15.3907207383       11.1672827479       12.7682204781
  H        14.3502699934       13.0701328966       14.0135504222
  H        13.3752695831       11.6307268855        9.1960497617
  H        50.3228270338       22.7490157721       11.9823103294
  H        49.3195465533       24.6234153698       10.6762405228
  H        45.6413932302       24.1599991224       12.8576348271
  H        46.6623294504       22.2891235359       14.1658284708
  H        47.6293559628       23.5756980455        9.2411010485
  H        14.8716829463        8.5880158357       12.6033692020
  H        50.2871407199       22.7035052578        4.0646017632
  H        49.2689209391       24.5762683669        5.3646869240
  H        45.6093235098       24.1074029046        3.1524804285
  H        46.6515315403       22.2521771150        1.8383163808
  H        47.6072397649       23.5516047193        6.8019348100
  H        40.6404596139       17.0786724513        3.4108294158
  H        48.6865673435       14.0949282576       15.7947902337
  H        10.6809930535       12.4667216350        4.0983427425
  H        11.6889648652       10.5247094962        5.3020151836
  H        15.3927059518       11.1577705621        3.2098858098
  H        14.3643142956       13.0863321379        1.9944813821
  H        13.3747925642       11.6215908369        6.7580674145
  H        47.9301382191       14.2171430262        1.7160642057
  H        47.7795114353       14.3715091137       14.4893074163
  H        49.0819865991       18.5517687428        2.8718364707
  H        10.4151706482       14.1343905592        0.0037011615
  H        24.4860376383        3.0310615334       11.9101097180
  H        25.6270134930        4.8891301610       10.6845889807
  H        23.2506337025        7.7565266048       12.8362554107
  H        22.1280860794        5.8886591880       14.0637240167
  H        23.8185306748        5.7951921459        9.2551795824
  H        36.3554654105       32.1940235599       11.9836492431
  H        35.2064063773       30.3775961314       10.7163480249
  H        37.4739320231       27.4393115165       12.8903906604
  H        38.6025564953       29.2689239156       14.1680502422
  H        36.9764535949       29.4600437008        9.2917454643
  H        25.7422387809        8.6148640548       12.6409621831
  H        36.4503970427       32.2467882157        4.1150084991
  H        35.3296609339       30.4381594209        5.4125396733
  H        37.5258801366       27.4881911076        3.1799873036
  H        38.6208285582       29.3088149532        1.8690091888
  H        37.0094085232       29.4790310751        6.8547750832
  H        46.1085723788       26.5870367312        3.3906485136
  H        44.6684194135       35.1161375745       15.8088411577
  H        24.4406906755        3.0361575110        4.0878653788
  H        25.5795980083        4.8722753042        5.3362505157
  H        23.1822134804        7.7672727814        3.2464049800
  H        22.0548828747        5.9190867670        1.9977537200
  H        23.8028086726        5.7925452877        6.8167079002
  H        44.9543678898       34.3908369187        1.7004722415
  H        44.9023884239       34.2071505703       14.4852689042
  H        40.6662161137       33.2089863995        2.8582316623
  H        23.1507437583        1.9576651713        0.0100235976
  H        25.8136450630       19.6653700960       11.9178939013
  H        23.6442095221       19.7085104724       10.6825916075
  H        22.3601586125       16.2100712158       12.8289763772
  H        24.5346904817       16.1780528483       14.0585217420
  H        23.7246673609       17.6692545058        9.2372267192
  H        35.1173995647       15.4988867652       11.9193739402
  H        37.2476720684       15.4446809872       10.6290854427
  H        38.6957929428       18.8020261328       12.8969577966
  H        36.5636512400       18.8287278927       14.2022056569
  H        37.2181773714       17.3982686289        9.2224650049
  H        20.3630549068       17.9797372128       12.6622397261
  H        35.1648468825       15.4428842411        4.1268196569
  H        37.2906746734       15.3871030316        5.3881233985
  H        38.7347234723       18.7594616347        3.1359688009
  H        36.5940923620       18.7984582328        1.8479989198
  H        37.2306237338       17.3707041282        6.7844055680
  H        35.1377086852       26.6875895012        3.4126644555
  H        28.5152274974       21.0806229655       15.9709681640
  H        25.7257987573       19.6670244193        4.1196638169
  H        23.5408102607       19.7167537794        5.3345247941
  H        22.3260713108       16.1382318480        3.2829537897
  H        24.5127413972       16.1059463648        2.0666440348
  H        23.7015005119       17.6574506699        6.7940752698
  H        28.9967971042       21.7165970234        1.7781262923
  H        29.1326564472       21.7591792887       14.6084180657
  H        32.1167064406       18.5525064335        2.9888858738
  H        27.4123106199       19.0847886152        0.0976234136
  H        14.8504382353       19.6497631337        4.1420753037
  H        17.0133019875       19.6956493122        5.3851657157
  H        18.2989785122       16.1818335940        3.2637042057
  H        16.1321201229       16.1524063286        2.0200893493
  H        16.9214960525       17.7007081156        6.8542338125
  H        46.0923999246       15.4465596898        4.0773381267
  H        43.9646557579       15.3884035815        5.3801053094
  H        42.5413607280       18.8042699576        3.1872811740
  H        44.6699005005       18.8384337130        1.8749179993
  H        44.0159913388       17.3437284115        6.8253504656
  H        20.2887171343       17.9146981707        3.4248199005
  H        46.0388372893       15.4016152532       12.0088796698
  H        43.9100491850       15.3491619438       10.7121512266
  H        42.5172349444       18.7982705314       12.8714598230
  H        44.6524746461       18.8375864283       14.1689535981
  H        44.0024261122       17.3338491732        9.2644428350
  H        46.1989312152       26.6823857428       12.6182345817
  H        52.7408064179       21.0625074601        0.1997381969
  H        14.8833812167       19.6804532005       11.8985532063
  H        17.0842007675       19.7564113359       10.7194266165
  H        18.3354067539       16.2286208228       12.8376546652
  H        16.1366325012       16.1772101181       14.0265559757
  H        16.9442280215       17.7191262577        9.2917437004
  H        52.3217485188       21.6729218954       14.2893680146
  H        52.0127392910       21.7016518984        1.5007848580
  H        49.0662896722       18.6073669349       13.1990189303
  H        13.2468863196       19.0168732887       15.9720836649
  H        29.9711242673       12.4458798808        4.2033567114
  H        28.9106080877       10.5236443722        5.3921724339
  H        25.2624814083       11.1891323222        3.2131530206
  H        26.3379095164       13.1081141105        2.0236548872
  H        27.1941544274       11.6652118479        6.7904331702
  H        30.9630761655       22.8005492691        4.0000632019
  H        31.9659598440       24.6762660082        5.3002401423
  H        35.6842497617       24.1297735478        3.2066768867
  H        34.6663843723       22.2511144199        1.9064781762
  H        33.6271272205       23.5987909336        6.7691928792
  H        25.7300981942        8.5868472819        3.4049516855
  H        30.8837372056       22.7004661461       11.9402498196
  H        31.8897410670       24.5761778183       10.6410833974
  H        35.5458115819       24.1444740853       12.8672439635
  H        34.5226064292       22.2728961397       14.1675344812
  H        33.5844430147       23.5841755280        9.2070581022
  H        40.5886888003       17.0987536399       12.6409561576
  H        32.5224034706       14.1554611326        0.2583059897
  H        29.8895822905       12.5560322373       11.8830284477
  H        28.8644160079       10.6544281469       10.6337046196
  H        25.2235637737       11.1564701019       12.8694439213
  H        26.2746621531       13.0374443442       14.1371564764
  H        27.1794337283       11.6873855036        9.2270793888
  H        33.2987112518       14.2114511315       14.4311583948
  H        33.4040217785       14.3631458715        1.6334057363
  H        32.0788982377       18.5217336811       13.1417201646
  H        30.2298301671       14.1920313146        0.0746928195
  H        16.1183171702        2.9631788465        4.1346780808
  H        14.9530618509        4.8201861218        5.3274188189
  H        17.3659136903        7.6858410843        3.2150958933
  H        18.5148257937        5.8183234448        2.0153390844
  H        16.7537414912        5.7396835841        6.7765245823
  H        44.8281006805       32.1401168515        3.9821240548
  H        45.9372738291       30.3412099281        5.3114685396
  H        43.6823768109       27.3780636714        3.1572796335
  H        42.5998056542       29.1899330918        1.8146470025
  H        44.2305906423       29.4369254904        6.7740025975
  H        14.8504344544        8.5457342942        3.3683216494
  H        44.8998392117       32.2340464508       11.9266768558
  H        46.0246861210       30.4130582635       10.6471991696
  H        43.7637428213       27.4840452119       12.8405403739
  H        42.6460054226       29.3176474811       14.1196562897
  H        44.2688148975       29.4707544889        9.2130222342
  H        35.0075770515       26.6328375643       12.6438249214
  H        36.6052293198       35.1340604361        0.1857791100
  H        16.1438644327        3.0129853559       11.8988435899
  H        14.9743151587        4.8562921873       10.6830658978
  H        17.3958424213        7.7472812899       12.7502906787
  H        18.5429725142        5.8933592403       13.9779317110
  H        16.7649972585        5.7557262363        9.2140828463
  H        36.2786597070       34.4825223061       14.2680660240
  H        36.3808649067       34.2090814268        1.5046921206
  H        40.5795708972       33.2020649494       13.1490014757
  H        17.4711611328        1.9470886967       15.9690069182
  H        28.7678387661       18.9047573759        4.4079948343
  H        28.9268222445       18.2971102725       11.8413648214
  H        31.7419997682       15.8495808513       11.5328335221
  H        31.0939789956       15.4401095483        4.4478365523
  H        28.5555019289       17.3318668729        7.0296171595
  H        29.7210345984       15.2404852558        6.7596844344
  H        30.4300174779       20.0035555164       10.1372061736
  H        32.8712851255       17.5587594947        9.4608328688
  H        18.8532669688        0.8688906691        4.3402321277
  H        40.5280294228       35.2289387648       11.9469998720
  H        42.3243189520       34.4192299410       11.5853653465
  H        22.0877862972        0.6917293636        4.3568324592
  H        11.5970641328       18.7130354980        4.3872189428
  H        52.2645198885       18.4306806532       11.6722511665
  H        49.2550883739       16.4766084287       11.5792822148
  H        10.1498583630       15.7981402621        4.2981606671
  H        50.8494119465       17.6923184475       11.9492864411
  H        10.0458844938       17.3944167877        4.0571205688
  H        20.2146610465        0.0021684384        4.0470743870
  H        39.1836276670       36.1242682779       11.6812754378
 Ni        30.9854913739       17.8914559024       10.8301381908
 Ni        31.2850690161       16.4023010076        8.1619661525
 Ni        29.9732665530       18.8187689406        8.0801553284
 Ni        30.0600660911       17.2534902988        5.3273011368
  O        10.6497759551       14.3651797402       13.4807000942
  O        12.6131093540       14.6575744507       14.5787309733
  O        49.1477647149       16.8460118688       15.9845725599
  O        50.3501909111       20.9359786785       13.6430548571
  O        48.3485122811       20.5933378343       14.6608387820
  O        11.0510633734       17.0539921758       14.4953851854
  O        50.3208922267       20.8816864039        2.4118893751
  O        48.3467121634       20.5867095073        1.3321330509
  O        49.5435436771       18.2484612756        2.0733316907
  O        12.3587737675       18.6244388928        0.0047533165
  O        48.6931501258       14.1487467205       14.7460997269
  O         8.2098521036       14.2103699888        1.3276083283
  O        10.7353203563       14.5067728208        2.6694610782
  O        12.5717950747       14.5828532107        1.3335704930
  O        22.8448582550        2.0437461392       13.4817435009
  O        21.6062646474        3.5928794728       14.5838483582
  O        42.0579935875       34.1372549980       15.9738443629
  O        37.9813282331       33.1370393264       13.5674730025
  O        39.2172192041       31.5750799454       14.6606888185
  O        20.3085265815        1.0396962913       14.4970317517
  O        38.0241819178       33.1848074065        2.4208527506
  O        39.2178254237       31.5824638060        1.3331045211
  O        40.6521704590       33.7691603352        2.0652473816
  O        18.2558322685        1.3758866018        0.0019138596
  O        44.6221574598       35.1005977516       14.7536677576
  O        24.2053514073        0.0000306490        1.3258763680
  O        22.7532347021        2.0576739612        2.5889558494
  O        21.6249776160        3.5965570802        1.3486306803
  O        27.4990649209       18.7499817537       13.4868886438
  O        26.7623081149       16.9357392087       14.6480468496
  O        30.6592441934       19.4019824909        0.0774995506
  O        33.5371340789       16.3404244965       13.5824507797
  O        34.2693168072       18.1675333400       14.7299074029
  O        29.5696564410       17.0670143092       14.5710136612
  O        33.5490049335       16.3421035442        2.4231809692
  O        34.2960509161       18.2384244536        1.4102769603
  O        31.6484620758       18.3129185889        2.1721239735
  O        30.3222026811       15.1589130388        0.0860164220
  O        28.5523441536       21.0335563993       14.8993774728
  O        28.5156751068       20.9512398727        1.4201376439
  O        27.4586364415       18.6794192665        2.6653715732
  O        26.6940203871       16.9309830441        1.4184352922
  O        13.1488631435       18.6930090673        2.5926273963
  O        13.9194431451       16.9161108153        1.4100596403
  O        50.5955109638       19.3501029364        0.0253361000
  O        47.6831624770       16.3270681976        2.4222181142
  O        46.9514934630       18.1757061175        1.3297630796
  O        11.0694330225       17.0156221572        1.4948203765
  O        47.6737235674       16.3362609271       13.6469295507
  O        46.9256559517       18.2359446256       14.6584377770
  O        49.5680982456       18.3176743414       13.9769677987
  O        10.3184258167       15.1003075953        0.0021250469
  O        52.6707081438       21.0278587595        1.2469343262
  O        12.1468156343       20.8910521233       14.6680247208
  O        13.1087099879       18.6136650345       13.3202827011
  O        13.9578003426       16.9871156828       14.6599856588
  O        30.0004540764       14.4320565487        2.6688063574
  O        28.0781026503       14.6573914500        1.4902867174
  O        32.0805111512       16.8685961258        0.0767525388
  O        30.9594993397       20.9362459316        2.4265530571
  O        32.9408309344       20.6065170179        1.3480590475
  O        29.5650236574       17.0759855153        1.5788404110
  O        30.8517725512       20.8882690768       13.6506582985
  O        32.8700805476       20.5890820818       14.6609061839
  O        31.6528840087       18.3017872711       13.9900261471
  O        28.2942236148       18.6780999373        0.0823120558
  O        32.4896325130       14.2133410762        1.3314559319
  O        32.4042645034       14.2284394902       14.8109554982
  O        29.9194911887       14.4387859224       13.4870453110
  O        28.0384857575       14.5894151524       14.7470023445
  O        17.8892542451        1.9665651740        2.6678850911
  O        18.9563043968        3.5271037413        1.4130431134
  O        39.1685762452       34.1385407683        0.0022940984
  O        43.2801276739       33.0589250871        2.3367800007
  O        42.0342931025       31.5065082660        1.2467269928
  O        20.3176521676        1.0366956757        1.4851706623
  O        43.2760026585       33.1825739618       13.5698220172
  O        42.0051761061       31.5841256190       14.5779263842
  O        40.5790237072       33.7750034004       13.9309432210
  O        22.3673921577        1.3847315600        0.0030159551
  O        36.6728449798       35.0997094202        1.2384349727
  O        16.4457109076        0.0642822298       14.6631862737
  O        17.9365193281        2.0433936717       13.3212919153
  O        18.9191697413        3.5931156477       14.6608664338
  O        29.7396461568       18.8187159678       12.0049395525
  O        29.6985683204       18.7596823516        4.1446178742
  O        31.1358513390       16.4099850057       12.0572684556
  O        31.1795187623       16.3418762685        4.0775018784
  O        32.1901351869       16.9185920749        9.7375964884
  O        30.4629022411       15.8375305302        6.5656400597
  O        31.5594078383       18.1666717015        7.3290513424
  O        30.9569096741       19.3449361585        9.6412173600
  O        28.9679798310       18.1022012444        6.5913740548
  O        39.4567785834       35.2436707545       11.9968984377
  O        19.1412523313        0.0044015284        3.9956114451
  O        41.9695937551       35.1728501253       12.0821492678
  O        21.6911419834       -0.0693955681        3.9009003798
  O        51.3648468246       18.6142190300       12.0003913804
  O        10.7511626768       18.7472867428        3.9099192179
  O        50.0795285094       16.4129025663       12.0866911423
  O         9.5243344309       16.4831205567        3.9963036848
 Zr         9.2948860593       16.0528524788       14.1771376555
 Zr        49.8349910505       16.0066672143        1.7517790530
 Zr        22.0735098814        0.0299267059       14.1838165676
 Zr        42.4610823553       35.1534139593        1.8060888080
 Zr        29.6019187580       19.1085355113       14.2658853207
 Zr        29.5850098187       19.1608369279        1.8850574639
 Zr        11.0366144779       19.0520934091        1.8324434598
 Zr        11.0425409599       19.1548910940       14.2463544254
 Zr        31.3393484709       16.0943406108        1.8808341345
 Zr        31.3764014496       16.0333534967       14.2632841518
 Zr        18.6012517495       -0.0015785477        1.7684959569
 Zr        18.5067741403       -0.0076362534       14.2086057215
 Zr        12.3003039568       16.3234465960       15.9849525037
 Zr        48.6142208478       18.8325844242        0.0151252816
 Zr        20.3157699333        2.4737566856       15.9855019010
 Zr        40.6434000837       32.6867524378       15.9731266911
 Zr        28.3479977642       16.3405848741        0.0839881453
 Zr        32.6238112811       18.8402289341        0.0549916759
  H        32.2536826665       18.7359278437        7.7098361261
  O        28.4252815543       15.9850608866       10.9121258043
  H        29.3124631789       15.9115188410       11.3331184155
  H        27.8577708927       15.4156066440       11.4559135606
  O        33.4187861080       15.0965073565        5.6636265030
  H        32.8722227126       15.0508376220        6.4706018277
  H        32.9849915613       15.8103772790        5.1563653962
  O        28.1869083586       19.4857111930        8.8342967277
  H        27.5982372962       19.4390607131        8.0565000307
  H        27.8797652343       18.7953666759        9.4551390434
  O        30.4561577466       20.8132493264        6.1514810472
  H        30.3360408574       20.1403798932        5.4412955870
  H        31.2601818961       21.2889352576        5.8894040131
  H        31.0338352503       15.0988524708        8.7534054994
