     583
 i =      194, E =     -4830.6140520366
  C        11.8584218850       14.0536268706       13.7364863271
  C        12.4558991889       12.8905096689       13.0182051065
  C        11.7042804153       12.1717746650       12.0763634447
  C        12.2805839300       11.1095210336       11.3839835673
  C        13.6210551374       10.7395086246       11.6118882627
  C        14.3541577277       11.4428451235       12.5855759862
  C        13.7812957555       12.5078306911       13.2770908001
  C        14.2606913781        9.6489075211       10.8384888587
  C        14.2561787187        9.6568700484        9.4167832105
  C        13.7428142021       10.7588800122        8.6628459661
  C        49.1265886175       21.2332433951       13.8746000161
  C        48.5497908194       22.4010880392       13.1474334606
  C        49.3000055454       23.0687714021       12.1668229255
  C        48.7330407138       24.1078913424       11.4336352888
  C        47.4023210556       24.5091256138       11.6618807466
  C        46.6711351719       23.8597740827       12.6748947021
  C        47.2335820244       22.8148639825       13.4042493411
  C        46.7721550979       25.5869022983       10.8646460339
  C        46.7613119777       25.5573517153        9.4428882448
  C        47.2611163063       24.4421857348        8.6994244218
  C        14.8602612018        8.5706004460        8.7035294446
  C        14.8914136138        8.5969324474       11.5151545901
  C        49.1129812341       21.2033750708        2.1504444446
  C        48.5275079072       22.3645837611        2.8777642176
  C        49.2669892898       23.0258248741        3.8701384682
  C        48.6905891547       24.0603350093        4.6015982127
  C        47.3599107551       24.4564945546        4.3638724441
  C        46.6391388145       23.8108791455        3.3410774514
  C        47.2127259027       22.7749763316        2.6093020706
  C        46.7215323451       25.5315878320        5.1547973319
  C        46.7334306241       25.5281042239        6.5764859934
  C        47.2488226845       24.4288811760        7.3328757428
  C        40.6222724704       17.1187605868        7.3093913347
  C        40.6368974937       17.1207883076        4.4999891107
  C        11.8827798274       14.0865523540        2.2905354244
  C        12.4720427312       12.9105123927        2.9946539864
  C        11.7145180261       12.1774516243        3.9208429037
  C        12.2810292949       11.0949320739        4.5892637027
  C        13.6197991718       10.7210809281        4.3574370991
  C        14.3577219198       11.4364500059        3.3964472769
  C        13.7923802633       12.5176646433        2.7237547870
  C        14.2534522687        9.6243914889        5.1279078095
  C        14.2523349003        9.6444799963        6.5497510619
  C        13.7422591698       10.7533492861        7.2967998364
  C        22.5121455019        3.2447600602       13.7481612505
  C        23.2269853393        4.3510078983       13.0493511908
  C        24.2248672463        4.0723422589       12.1037112838
  C        24.8516262422        5.1127388339       11.4224647940
  C        24.4963218840        6.4542321753       11.6667406757
  C        23.5267188916        6.7245479014       12.6495078498
  C        22.8953812394        5.6859022669       13.3290825434
  C        25.1010711706        7.5613530247       10.8906436481
  C        25.0708611742        7.5546538904        9.4691158301
  C        24.3664297949        6.5556634891        8.7247317929
  C        38.3031067681       31.9298328534       13.8439560538
  C        37.5747095321       30.8399618082       13.1341831643
  C        36.6163062630       31.1428245104       12.1550654064
  C        36.0007694445       30.1216419875       11.4366867537
  C        36.3289224606       28.7729232315       11.6763384095
  C        37.2576884897       28.4775489697       12.6918700183
  C        37.8775181773       29.4974015421       13.4088715261
  C        35.7278919876       27.6805084593       10.8794696784
  C        35.7595285461       27.6948817223        9.4582786058
  C        36.4661731662       28.6967144675        8.7210795989
  C        25.6938093184        8.6236993482        8.7477132372
  C        25.6999365617        8.6361619478       11.5597492949
  C        38.3287631495       31.9621370116        2.1611961617
  C        37.6074543667       30.8888020667        2.9030632374
  C        36.6802574256       31.1973045992        3.9101602055
  C        36.0708654205       30.1785086251        4.6398575103
  C        36.3742977500       28.8259780974        4.3857352297
  C        37.2789526498       28.5275373059        3.3484553487
  C        37.8906119998       29.5427785407        2.6201062259
  C        35.7672282559       27.7264854873        5.1699858300
  C        35.7796962431       27.7183250191        6.5919163281
  C        36.4754559418       28.7082047261        7.3545806814
  C        46.1356371773       26.6208608913        7.2865999454
  C        46.0875854400       26.5799138546        4.4787151474
  C        22.4597327900        3.2557142998        2.2632678926
  C        23.1513079314        4.3649220228        2.9878048836
  C        24.1517925630        4.0797500493        3.9304987794
  C        24.7774908912        5.1105585515        4.6275151846
  C        24.4228676341        6.4560295520        4.4040108918
  C        23.4451359450        6.7344332061        3.4301674169
  C        22.8146272486        5.7038756912        2.7338898870
  C        25.0530270325        7.5548810870        5.1774900165
  C        25.0469778381        7.5502780266        6.6002903501
  C        24.3531259588        6.5546905961        7.3581050701
  C        26.6137731119       17.8518011225       13.7805444270
  C        25.3098342877       17.8899216107       13.0517564755
  C        25.0437987749       18.8932022441       12.1059359030
  C        23.8325970822       18.9091727813       11.4169123883
  C        22.8493565045       17.9268660717       11.6542610034
  C        23.1112399214       16.9464961099       12.6298283978
  C        24.3254108677       16.9239010460       13.3149378895
  C        21.5759456135       17.9132865806       10.8904597699
  C        21.5769947345       17.8962655318        9.4681265977
  C        22.7829586782       17.7745959778        8.7078174324
  C        34.4229921123       17.2233116698       13.8779648579
  C        35.7183604770       17.1653138165       13.1433713516
  C        35.9171008535       16.2089589733       12.1352441851
  C        37.1025913316       16.1908070859       11.4066484429
  C        38.1208565600       17.1298873115       11.6628075220
  C        37.9250576385       18.0650546419       12.6974107294
  C        36.7382698102       18.0869467408       13.4259669424
  C        39.3749944425       17.1396142481       10.8763304033
  C        39.3682915213       17.1505069785        9.4539330878
  C        38.1607829959       17.2685152629        8.6959947436
  C        20.3306447866       17.9169872558        8.7595096093
  C        20.3512009477       17.9153053223       11.5729245309
  C        34.4490676281       17.2345527672        2.1867594933
  C        35.7531050928       17.1279245744        2.8992136372
  C        35.9521723333       16.1617043751        3.8972240164
  C        37.1422724019       16.1433429087        4.6210507897
  C        38.1591111635       17.0833801000        4.3677537520
  C        37.9669071531       18.0185800409        3.3323433701
  C        36.7770281154       18.0461417071        2.6120995350
  C        39.4054692957       17.1093558133        5.1649833582
  C        39.3841105455       17.1336953481        6.5867199741
  C        38.1677786701       17.2569055298        7.3294414696
  C        35.1496208907       26.6388798574        7.2960050247
  C        35.1751298076       26.6570259750        4.4870849965
  C        26.5709531422       17.8229172527        2.3318875275
  C        25.2568741045       17.8699641261        3.0366789073
  C        24.9885892663       18.8778400165        3.9751533294
  C        23.7707327059       18.9016055868        4.6485190249
  C        22.7914228356       17.9179044850        4.4057662243
  C        23.0530882651       16.9353674572        3.4337514106
  C        24.2721135395       16.9090414481        2.7594709247
  C        21.5279548446       17.8983321376        5.1786780476
  C        21.5524285147       17.8870528118        6.6000252169
  C        22.7711638325       17.7698985690        7.3414976947
  C        14.0460639456       17.8287534875        2.2934272723
  C        15.3509768492       17.8852805338        3.0184749861
  C        15.6083239720       18.8879691641        3.9662642532
  C        16.8175689233       18.9077113483        4.6587996652
  C        17.8031617306       17.9275341926        4.4252091974
  C        17.5506863524       16.9492098555        3.4451051316
  C        16.3408815680       16.9248651312        2.7543621347
  C        19.0721899176       17.9084609828        5.1939725249
  C        19.0709935516       17.9026672390        6.6163807803
  C        17.8636695357       17.8039463721        7.3772201700
  C        46.8035872861       17.2168732276        2.1621127110
  C        45.5117080921       17.1505285505        2.9026696114
  C        45.3079442382       16.1748593702        3.8908384703
  C        44.1242593969       16.1532874324        4.6233879751
  C        43.1143381397       17.1069819907        4.3895711619
  C        43.3146516175       18.0606540312        3.3732201141
  C        44.4992637780       18.0866223346        2.6418927913
  C        41.8611861527       17.1174569905        5.1778884211
  C        41.8683802812       17.1288768743        6.5996962818
  C        43.0776916390       17.2326472651        7.3564840366
  C        20.3176851191       17.9111023992        7.3247999921
  C        20.2962711067       17.8888115138        4.5117259628
  C        46.7841454495       17.2333874482       13.8800953389
  C        45.4830648918       17.1332515635       13.1591752237
  C        45.2655352698       16.1419872132       12.1898363085
  C        44.0784074983       16.1200583386       11.4614871972
  C        43.0774954076       17.0861090957       11.6842369247
  C        43.2861961827       18.0476351414       12.6909375383
  C        44.4743391489       18.0761604072       13.4144818866
  C        41.8300597038       17.1108661176       10.8879984343
  C        41.8525081416       17.1246670673        9.4665671976
  C        43.0703816231       17.2275876204        8.7233000692
  C        46.1534116663       26.6372918363        8.7211404877
  C        46.1622129002       26.6559934746       11.5307952520
  C        14.0446318160       17.8298039481       13.7026550004
  C        15.3653088258       17.8992582284       13.0097848021
  C        15.6435686084       18.9159264964       12.0841623185
  C        16.8727930062       18.9490729791       11.4292422449
  C        17.8510780250       17.9644244861       11.6741374184
  C        17.5793134074       16.9755815952       12.6369622250
  C        16.3522624931       16.9422207517       13.2955078554
  C        19.1188146965       17.9369341207       10.9057748627
  C        19.0954665633       17.9161401371        9.4842495996
  C        17.8755743216       17.8100721316        8.7432422837
  C        28.8042316201       14.0879489976        2.3941767413
  C        28.1912667943       12.9153996283        3.0808324688
  C        28.9173252246       12.1678171950        4.0201307386
  C        28.3159701713       11.0947484766        4.6729311400
  C        26.9762702378       10.7448494417        4.4091307728
  C        26.2726202824       11.4716208413        3.4319889186
  C        26.8708105715       12.5457422922        2.7784256488
  C        26.3066123177        9.6664391728        5.1716844319
  C        26.2969170252        9.6937546865        6.5926532169
  C        26.8045343110       10.8059001973        7.3364349872
  C        32.1804071105       21.2424160051        2.1519716436
  C        32.7721615752       22.4097138269        2.8674903318
  C        32.0290171500       23.0781012361        3.8525477532
  C        32.6003199245       24.1165651853        4.5807633806
  C        33.9308067880       24.5136773143        4.3457326825
  C        34.6561638583       23.8636781125        3.3292962623
  C        34.0872950323       22.8201410550        2.6022163300
  C        34.5615391381       25.5866475016        5.1469039401
  C        34.5561776157       25.5556261375        6.5686101813
  C        34.0488087013       24.4398239632        7.3070125204
  C        25.6863315256        8.6176224752        7.3131303071
  C        25.6679973633        8.6162472577        4.4996833586
  C        32.1044406407       21.2307918608       13.8798205378
  C        32.6966732859       22.3810862855       13.1363479578
  C        31.9608801414       23.0428444737       12.1412814369
  C        32.5424391002       24.0703011171       11.4023644432
  C        33.8729088924       24.4663939954       11.6417638507
  C        34.5914341432       23.8182947211       12.6645666667
  C        34.0149756153       22.7845996449       13.3979405143
  C        34.5140532931       25.5463910724       10.8568024286
  C        34.5307463416       25.5360585384        9.4350118937
  C        34.0352775451       24.4309949729        8.6737180519
  C        40.6140755907       17.1220901630        8.7441865692
  C        40.5996690091       17.1357983677       11.5544015353
  C        28.7477958909       14.0634498971       13.8239183982
  C        28.1357934608       12.9202221487       13.0820405535
  C        28.8674599529       12.2330202585       12.1004603708
  C        28.2845529191       11.1798281742       11.3996698709
  C        26.9544645825       10.7882409254       11.6531877139
  C        26.2387369697       11.4660100101       12.6584971446
  C        26.8191997883       12.5191669436       13.3620311645
  C        26.3114375333        9.6983779406       10.8807135739
  C        26.3005344055        9.7109690257        9.4588174223
  C        26.8036337374       10.8158325463        8.7022660291
  C        18.1354118213        3.1809743308        2.3222746803
  C        17.4060641449        4.2781910388        3.0208885496
  C        16.3905840508        3.9997892809        3.9486560519
  C        15.7428112278        5.0397444138        4.6121484973
  C        16.0944488376        6.3834980277        4.3722255100
  C        17.0835166887        6.6530488176        3.4081370058
  C        17.7326605524        5.6157349791        2.7431020863
  C        15.4701139550        7.4911919960        5.1352464092
  C        15.4855534266        7.4906032829        6.5569540746
  C        16.1872891449        6.4971240875        7.3101413383
  C        42.9460064978       31.8594533027        2.0779842948
  C        43.6462939191       30.7718443788        2.8218905509
  C        44.5920210697       31.0930991079        3.8078183983
  C        45.1976750729       30.0875442242        4.5554905565
  C        44.8711022629       28.7344847570        4.3407320980
  C        43.9451324766       28.4201692308        3.3276304613
  C        43.3364030972       29.4253416314        2.5795751683
  C        45.4886046668       27.6551853789        5.1439708674
  C        45.4929985699       27.6810071577        6.5656571750
  C        44.8060873600       28.6891856088        7.3122626526
  C        14.8565183474        8.5630642927        7.2693024779
  C        14.8746422551        8.5628400696        4.4566282710
  C        42.9465397144       31.9614504141       13.8038672875
  C        43.6917570947       30.8854366951       13.0904401177
  C        44.6563290961       31.1913875549       12.1181000056
  C        45.2778170861       30.1717930248       11.4003867552
  C        44.9540878708       28.8214447175       11.6380220645
  C        44.0206116429       28.5237824749       12.6488236385
  C        43.3923651860       29.5405206300       13.3610318947
  C        45.5630986936       27.7240897794       10.8527204708
  C        45.5335558379       27.7175202758        9.4314175029
  C        44.8273683783       28.7078394200        8.6784483390
  C        35.1381112532       26.6278258096        8.7306273044
  C        35.1236706580       26.6051852881       11.5402838030
  C        18.1485212266        3.2469583697       13.7015255245
  C        17.4298872669        4.3437970036       12.9922714096
  C        16.4149234282        4.0525278218       12.0684277093
  C        15.7665719485        5.0831413559       11.3930442035
  C        16.1209265585        6.4284242404       11.6160188368
  C        17.1119840666        6.7117951432       12.5736264595
  C        17.7597005159        5.6828987449       13.2533726846
  C        15.4904477243        7.5241158194       10.8435537272
  C        15.4965667717        7.5075454550        9.4224165329
  C        16.1935063803        6.5059395051        8.6757482005
  H        10.6721825062       12.4660093538       11.8992716302
  H        11.6942344714       10.5511345682       10.6574162689
  H        15.3910685187       11.1679512449       12.7675379638
  H        14.3505720105       13.0708159757       14.0128504131
  H        13.3754608614       11.6308651754        9.1961457912
  H        50.3228439039       22.7489990077       11.9823670820
  H        49.3195921099       24.6234341095       10.6763031112
  H        45.6414136189       24.1600291792       12.8576130167
  H        46.6623224372       22.2891536628       14.1658393427
  H        47.6294292056       23.5757447911        9.2411594820
  H        14.8714740896        8.5880604652       12.6034567496
  H        50.2872549831       22.7034367236        4.0646247506
  H        49.2690681243       24.5762273191        5.3647356965
  H        45.6094094333       24.1073857511        3.1526339766
  H        46.6515712507       22.2521468222        1.8384318440
  H        47.6073564484       23.5516567010        6.8019861909
  H        40.6426206650       17.0778934948        3.4125223710
  H        48.6866471046       14.0949415742       15.7948099280
  H        10.6810464533       12.4665762039        4.0981984502
  H        11.6891185502       10.5246179328        5.3019309790
  H        15.3930766199       11.1583452984        3.2104221192
  H        14.3646070692       13.0868611695        1.9950033102
  H        13.3750947763       11.6217899464        6.7581149377
  H        47.9301285800       14.2175246524        1.7159698841
  H        47.7796390388       14.3720619441       14.4895032260
  H        49.0821788901       18.5517952439        2.8719346818
  H        10.4152366516       14.1343661766        0.0037136482
  H        24.4869665803        3.0340789765       11.9125820832
  H        25.6253894736        4.8960874415       10.6891095998
  H        23.2446311715        7.7571176366       12.8445522343
  H        22.1244871020        5.8853326970       14.0694201023
  H        23.8055600846        5.7997074679        9.2665410523
  H        36.3789230447       32.1858160563       11.9592527703
  H        35.2572014855       30.3594232018       10.6791731159
  H        37.5184244680       27.4387121864       12.8833799732
  H        38.6205224526       29.2777667351       14.1718574975
  H        37.0323536727       29.4456959824        9.2670807197
  H        25.7371995171        8.6189840535       12.6475028349
  H        36.4582741503       32.2414806977        4.1185762115
  H        35.3466380745       30.4230741361        5.4137438953
  H        37.5252151990       27.4873502130        3.1457085133
  H        38.6118395568       29.3174370949        1.8383209369
  H        37.0497188375       29.4656096772        6.8288553792
  H        46.1087513241       26.5870261208        3.3906738213
  H        44.6683264419       35.1161611133       15.8087976315
  H        24.4300688880        3.0417600990        4.0982593252
  H        25.5573992115        4.8825358133        5.3509240045
  H        23.1597791018        7.7686938040        3.2488632247
  H        22.0439827304        5.9157764854        1.9963347999
  H        23.7811818148        5.7986304900        6.8279884625
  H        44.9541341545       34.3906358650        1.7003866761
  H        44.9020163446       34.2069365123       14.4853106686
  H        40.6661039745       33.2089451148        2.8581424964
  H        23.1505499235        1.9576684487        0.0105656667
  H        25.7946289733       19.6613628759       11.9325892230
  H        23.6307379305       19.6934969636       10.6904010377
  H        22.3634707511       16.1796996549       12.8219882147
  H        24.5379384644       16.1540209587       14.0531807382
  H        23.7233248047       17.6524183288        9.2374993053
  H        35.1264025795       15.4922420401       11.9276167035
  H        37.2535996291       15.4411718157       10.6330659786
  H        38.7027718788       18.7984004390       12.9004182698
  H        36.5719144024       18.8238231149       14.2083221558
  H        37.2209409636       17.3956379712        9.2252978938
  H        20.3577927038       17.9524369759       12.6608952205
  H        35.1632780979       15.4504795238        4.1311586997
  H        37.2875804744       15.3948270687        5.3968623804
  H        38.7452879987       18.7511708117        3.1294527917
  H        36.6068627655       18.7893793937        1.8370253964
  H        37.2332161791       17.3703658662        6.7875095192
  H        35.1447730068       26.6844689821        3.3995013081
  H        28.5102068563       21.0909288639       15.9718917718
  H        25.7461566906       19.6360936745        4.1585718423
  H        23.5621143307       19.6866497670        5.3721324326
  H        22.3047188486       16.1694606277        3.2407527152
  H        24.4907850915       16.1384061056        2.0241468270
  H        23.7026429807       17.6449141824        6.7972322010
  H        28.9979998871       21.7231332332        1.7717837613
  H        29.1376213173       21.7598220022       14.6055945373
  H        32.1471864149       18.5782798108        2.9635821438
  H        27.4049909190       19.0772548395        0.1002895936
  H        14.8501616460       19.6471703934        4.1450412680
  H        17.0135264940       19.6913130798        5.3875755973
  H        18.3013429140       16.1845241673        3.2560860988
  H        16.1338163019       16.1563167020        2.0134677956
  H        16.9211431691       17.6908325314        6.8494428989
  H        46.0943220873       15.4475300211        4.0783109018
  H        43.9669619785       15.3898779124        5.3821672448
  H        42.5422513344       18.8041710273        3.1877896480
  H        44.6704340638       18.8378686579        1.8744712737
  H        44.0184322024       17.3469953256        6.8255663928
  H        20.2901794848       17.9201233285        3.4236423329
  H        46.0420309825       15.4021075788       12.0092003496
  H        43.9133230284       15.3497921513       10.7112614610
  H        42.5195753017       18.7985185857       12.8705397673
  H        44.6547909028       18.8378123931       14.1690619467
  H        44.0055137814       17.3367457321        9.2649250783
  H        46.1988852215       26.6823578408       12.6182500198
  H        52.7408821653       21.0624777735        0.1997545402
  H        14.8868120092       19.6740890162       11.8948118329
  H        17.0877869832       19.7406949818       10.7146414710
  H        18.3255852159       16.2084157730       12.8330573317
  H        16.1269968635       16.1664318287       14.0232451633
  H        16.9419992701       17.7017709251        9.2871420167
  H        52.3216806848       21.6729102135       14.2893409724
  H        52.0126009658       21.7015801183        1.5006779883
  H        49.0666276507       18.6075211029       13.1989701682
  H        13.2470921062       19.0165063365       15.9717672721
  H        29.9507857214       12.4393375565        4.2244309882
  H        28.8798949436       10.5142982432        5.3999612421
  H        25.2376644840       11.2103393428        3.2210725852
  H        26.3255628138       13.1289399108        2.0404049414
  H        27.1697144620       11.6731451430        6.7946482794
  H        31.0086204488       22.7558802071        4.0442053661
  H        32.0198510956       24.6338920793        5.3413666997
  H        35.6861861672       24.1607445165        3.1429708813
  H        34.6536401369       22.2919402342        1.8386179472
  H        33.6929161979       23.5699230059        6.7622872896
  H        25.6964237567        8.5962033823        3.4116584557
  H        30.9356329969       22.7310802694       11.9549807205
  H        31.9664128987       24.5843079485       10.6359935398
  H        35.6214959009       24.1130654382       12.8541115571
  H        34.5751794888       22.2609200095       14.1690336036
  H        33.6693480675       23.5543949943        9.2010197192
  H        40.5939104403       17.0968490126       12.6420577643
  H        32.5278677550       14.1502347693        0.2611997963
  H        29.8930199542       12.5377209672       11.9044291155
  H        28.8603822483       10.6424907220       10.6492949863
  H        25.2092023612       11.1772091127       12.8599765381
  H        26.2645233361       13.0568337921       14.1274848545
  H        27.1674532473       11.6915133290        9.2319103648
  H        33.2999944231       14.2053798123       14.4329380339
  H        33.4029922497       14.3530151221        1.6427437614
  H        32.1510644328       18.5770030294       13.2082361500
  H        30.2361206198       14.1903819332        0.0793195184
  H        16.1187108775        2.9632637150        4.1352136978
  H        14.9535026726        4.8203237446        5.3279574757
  H        17.3656027967        7.6859690942        3.2147601980
  H        18.5144224295        5.8183954038        2.0149636958
  H        16.7539009467        5.7398065530        6.7766654363
  H        44.8284678909       32.1401429626        3.9819858673
  H        45.9376729481       30.3412233993        5.3113298005
  H        43.6823018940       27.3781227327        3.1575756814
  H        42.5997022236       29.1899746488        1.8150047668
  H        44.2307834890       29.4369840921        6.7739506982
  H        14.8506418162        8.5459353405        3.3684142541
  H        44.8998916581       32.2340608934       11.9266516431
  H        46.0247409501       30.4130326204       10.6471703990
  H        43.7637057346       27.4840390576       12.8403995831
  H        42.6459484546       29.3176163458       14.1195214320
  H        44.2689017522       29.4707964612        9.2129753806
  H        35.0807895952       26.6180723136       12.6277243180
  H        36.6050969300       35.1339871534        0.1857849293
  H        16.1440318444        3.0129321415       11.8985033147
  H        14.9744033252        4.8562613762       10.6827882615
  H        17.3951385520        7.7473063713       12.7508277120
  H        18.5423087442        5.8933531309       13.9784238880
  H        16.7649783903        5.7557459674        9.2142142609
  H        36.2784842720       34.4825937229       14.2679862851
  H        36.3808944359       34.2092091873        1.5048386206
  H        40.5807074086       33.2027179673       13.1485189318
  H        17.4707309435        1.9473398221       15.9690537805
  H        28.7839653748       18.9463556781        4.3445648124
  H        28.8196077811       18.5346253039       11.9359553711
  H        31.8798306122       15.8181053697       11.5431200679
  H        30.9947628776       15.3909780629        4.3719712531
  H        28.4711813194       17.1648595786        6.9396739392
  H        29.5846101845       15.0457713298        6.8738559900
  H        30.4463331379       20.0418923374       10.0842189026
  H        32.7562783506       17.6479933107        9.2587815250
  H        18.8533074759        0.8690138632        4.3402733416
  H        40.5279624102       35.2290475131       11.9469464895
  H        42.3243277946       34.4192566780       11.5852740676
  H        22.0878665938        0.6917601206        4.3569120565
  H        11.5970564166       18.7129733646        4.3872952101
  H        52.2648304054       18.4310814201       11.6723648242
  H        49.2558721989       16.4767226870       11.5790478604
  H        10.1501787531       15.7981342685        4.2980548223
  H        50.8498366662       17.6922164823       11.9493128936
  H        10.0459667034       17.3944440632        4.0571279570
  H        20.2145900239        0.0021774065        4.0471264071
  H        39.1836214210       36.1244985581       11.6813959073
 Ni        30.9882314995       17.8863486534       10.9885241124
 Ni        31.1533332507       16.3760736638        8.1595842266
 Ni        30.0981957459       18.7461714451        7.9907624723
 Ni        30.2266404554       17.3506405741        5.3308249204
  O        10.6497860215       14.3650417205       13.4806583339
  O        12.6130852389       14.6575690115       14.5787681033
  O        49.1479231671       16.8459996433       15.9846152960
  O        50.3501929873       20.9360287267       13.6430802163
  O        48.3484744690       20.5933912418       14.6608369650
  O        11.0511964095       17.0539722637       14.4953724642
  O        50.3209428167       20.8817137657        2.4119294669
  O        48.3467709836       20.5867286022        1.3321542736
  O        49.5435716952       18.2484740079        2.0733498981
  O        12.3587779076       18.6245218899        0.0047960278
  O        48.6931925096       14.1487567541       14.7461130820
  O         8.2098621192       14.2103382677        1.3275765555
  O        10.7353742631       14.5067498873        2.6694547852
  O        12.5718231449       14.5827908317        1.3335945913
  O        22.8447507715        2.0437020081       13.4819377957
  O        21.6055467170        3.5924603804       14.5845244732
  O        42.0582192304       34.1374118668       15.9738712202
  O        37.9819177522       33.1380628607       13.5674774408
  O        39.2183159653       31.5763384589       14.6617876928
  O        20.3084728917        1.0396220882       14.4969064532
  O        38.0246532652       33.1858369453        2.4202614804
  O        39.2191877699       31.5838320110        1.3314669187
  O        40.6522439217       33.7693749228        2.0653477145
  O        18.2554180349        1.3761570344        0.0018234119
  O        44.6222443751       35.1005611072       14.7536311163
  O        24.2053918324        0.0000572054        1.3259341505
  O        22.7529280247        2.0578975514        2.5890078064
  O        21.6243496878        3.5960450505        1.3475226256
  O        27.4867836722       18.7477289467       13.4918683435
  O        26.7629671562       16.9311863137       14.6529392065
  O        30.6697009294       19.4094777689        0.0840919955
  O        33.5436628580       16.3390580202       13.5858898280
  O        34.2723767791       18.1696534025       14.7273249164
  O        29.5754337881       17.0652496075       14.5756377626
  O        33.5569959761       16.3430457356        2.4212955286
  O        34.3005061003       18.2416782203        1.4119409691
  O        31.6522087615       18.3123940828        2.1721993187
  O        30.3254526904       15.1575367627        0.0926758949
  O        28.5513116341       21.0395559509       14.9000981071
  O        28.5141492152       20.9573637713        1.4181747498
  O        27.4610315591       18.6762370893        2.6687980987
  O        26.6948603170       16.9305948377        1.4185376380
  O        13.1489053375       18.6929683555        2.5926416625
  O        13.9193226807       16.9161101658        1.4099294479
  O        50.5956589619       19.3501518537        0.0254457194
  O        47.6835518205       16.3269559647        2.4221909485
  O        46.9516730032       18.1756831170        1.3297381903
  O        11.0694884572       17.0156568157        1.4948478073
  O        47.6745429464       16.3361262253       13.6471885931
  O        46.9262539789       18.2359093096       14.6587517028
  O        49.5682701572       18.3177622993       13.9770013590
  O        10.3184439174       15.1002661538        0.0021438412
  O        52.6707775426       21.0279433099        1.2469504429
  O        12.1468101960       20.8910975831       14.6680428087
  O        13.1087698326       18.6135023765       13.3202928109
  O        13.9571007557       16.9866797164       14.6604719814
  O        29.9900275966       14.4385922959        2.7337513106
  O        28.0886876941       14.6542386353        1.4985659334
  O        32.1392474433       16.8595276118        0.0806070663
  O        30.9655709570       20.9496101860        2.4188012529
  O        32.9464296324       20.6030556020        1.3470792227
  O        29.5703430131       17.0776795838        1.5844680514
  O        30.8748627689       20.9490167734       13.6581981146
  O        32.8799029136       20.5883832152       14.6637421198
  O        31.6553521535       18.3053859920       13.9983988524
  O        28.2904729819       18.6788649930        0.0845773030
  O        32.4897757888       14.2115515782        1.3332262150
  O        32.4064313077       14.2220048494       14.8150174509
  O        29.9186233982       14.4380034968       13.4891632251
  O        28.0387833543       14.5891636498       14.7517434648
  O        17.8892831224        1.9666094464        2.6678677544
  O        18.9562222248        3.5271247206        1.4130622676
  O        39.1687383624       34.1388506862        0.0023304340
  O        43.2802305762       33.0589658274        2.3368254333
  O        42.0345323892       31.5064783768        1.2467204776
  O        20.3177282555        1.0367851515        1.4853368109
  O        43.2760361332       33.1825360764       13.5697922659
  O        42.0052553820       31.5841755253       14.5779216797
  O        40.5791435511       33.7751829103       13.9308083648
  O        22.3673333549        1.3845923652        0.0029803358
  O        36.6727663233       35.0998163800        1.2384220746
  O        16.4455038326        0.0643077536       14.6632258879
  O        17.9364811051        2.0433758940       13.3212589715
  O        18.9190173019        3.5931270610       14.6608486314
  O        29.6958118442       18.9020501603       12.1592894547
  O        29.7311528010       18.9713027972        4.0949973135
  O        31.2586111879       16.3394329607       12.0869530426
  O        31.3034155923       16.2670514671        4.0632198036
  O        32.1958436075       16.9262088896        9.5976380250
  O        30.3370562650       15.6189171270        6.6559576099
  O        31.4964207081       17.8849985823        6.8351873159
  O        30.9175944264       19.2885113620        9.6843211380
  O        28.7661225264       18.0233362300        6.5860072096
  O        39.4568027018       35.2438677361       11.9968836557
  O        19.1412476770        0.0045165829        3.9956478862
  O        41.9695952139       35.1728334528       12.0821217804
  O        21.6912209902       -0.0693500025        3.9009771468
  O        51.3650502042       18.6142746324       12.0004427232
  O        10.7511497855       18.7472988306        3.9100032779
  O        50.0802201992       16.4128614204       12.0865797895
  O         9.5245359364       16.4830570282        3.9963176860
 Zr         9.2952605496       16.0528655152       14.1771594998
 Zr        49.8351917226       16.0067047728        1.7517736255
 Zr        22.0734185567        0.0296698802       14.1839430163
 Zr        42.4610666841       35.1531363485        1.8060558779
 Zr        29.5951424025       19.1249550334       14.2915463411
 Zr        29.5924856095       19.1799622779        1.8767121744
 Zr        11.0369059872       19.0520758806        1.8325954840
 Zr        11.0428383700       19.1548470038       14.2463451017
 Zr        31.3562045854       16.0973751004        1.8782407087
 Zr        31.3895176720       16.0299533634       14.2878098387
 Zr        18.6011771052       -0.0014181969        1.7684170371
 Zr        18.5064849850       -0.0077117453       14.2087169485
 Zr        12.3005000087       16.3235164287       15.9851311576
 Zr        48.6146160000       18.8326283232        0.0152269807
 Zr        20.3150781526        2.4731898362       15.9853497898
 Zr        40.6437639592       32.6869033448       15.9732218033
 Zr        28.3532685640       16.3441135077        0.0852967982
 Zr        32.6332200016       18.8462550524        0.0568790050
  H        32.3298992547       18.3596916418        6.6789875666
  O        28.5924038826       15.6875814200       10.9084931654
  H        29.4049855310       15.6469194121       11.4555223305
  H        28.0095870218       15.0195654408       11.3031582772
  O        33.4193135484       15.0963584781        5.6638657198
  H        32.7494555095       14.8550719742        6.3267917425
  H        32.9098979949       15.6745782530        5.0558671735
  O        28.1285554743       19.5627302430        8.6611330415
  H        27.8559470549       19.0839527947        7.8346391939
  H        27.7696997409       19.0379013367        9.3983211952
  O        30.2469666274       20.4481162843        6.4989413294
  H        30.1120936725       20.0326205784        5.6014586501
  H        29.5397428901       21.1076582251        6.5833572775
  H        30.5539212748       15.4159154127        9.0457194912
