     583
 i =      241, E =     -4830.6265767571
  C        11.8584218876       14.0536252868       13.7364472961
  C        12.4559085297       12.8905460997       13.0181360000
  C        11.7041931125       12.1717131751       12.0764414139
  C        12.2804977858       11.1094473349       11.3840840872
  C        13.6210090885       10.7395167139       11.6119075713
  C        14.3541517195       11.4428958195       12.5855324288
  C        13.7813156835       12.5079052821       13.2770347530
  C        14.2605690373        9.6488580512       10.8385171947
  C        14.2560794622        9.6568141626        9.4168084297
  C        13.7427094305       10.7588239264        8.6628736011
  C        49.1266413484       21.2332528092       13.8746342873
  C        48.5498533402       22.4011081770       13.1474568412
  C        49.3000512739       23.0687670020       12.1668202365
  C        48.7330798349       24.1078730378       11.4336140268
  C        47.4023534123       24.5090868630       11.6618628662
  C        46.6711801388       23.8597778948       12.6749154315
  C        47.2336469507       22.8148840865       13.4042788851
  C        46.7721927616       25.5868848929       10.8646464382
  C        46.7612897195       25.5573251786        9.4428869922
  C        47.2611253737       24.4421745800        8.6994166670
  C        14.8602060751        8.5705660748        8.7035565042
  C        14.8913767039        8.5969250737       11.5151688951
  C        49.1130049688       21.2033556022        2.1504248208
  C        48.5275447269       22.3645747744        2.8777567907
  C        49.2670037445       23.0258361273        3.8701316537
  C        48.6905986509       24.0603462901        4.6015937973
  C        47.3599290053       24.4565337405        4.3638436182
  C        46.6392021473       23.8109538205        3.3409903890
  C        47.2128050433       22.7750497368        2.6092261177
  C        46.7215615927       25.5316117511        5.1548119063
  C        46.7334401247       25.5281041901        6.5765067782
  C        47.2488124132       24.4288471082        7.3328658262
  C        40.6223084898       17.1208581841        7.3094049113
  C        40.6379888541       17.1255968843        4.4999145373
  C        11.8828055049       14.0865215883        2.2904772252
  C        12.4721101179       12.9105620150        2.9946755439
  C        11.7145412114       12.1774255346        3.9207723048
  C        12.2810401876       11.0949376909        4.5892531433
  C        13.6198185492       10.7211047251        4.3574179899
  C        14.3578127804       11.4365097315        3.3965031329
  C        13.7924375093       12.5176826380        2.7237657875
  C        14.2534765698        9.6244404187        5.1279307884
  C        14.2522872456        9.6444438931        6.5497801059
  C        13.7421779272       10.7533025705        7.2968269460
  C        22.5124532579        3.2447665085       13.7483372771
  C        23.2281094300        4.3507260196       13.0500106460
  C        24.2265228625        4.0715227973       12.1050709850
  C        24.8542158448        5.1115483443       11.4241611846
  C        24.4993029764        6.4532284954       11.6679939288
  C        23.5292507685        6.7240794490       12.6501793946
  C        22.8969903423        5.6857957011       13.3294798070
  C        25.1049568772        7.5598589999       10.8918964391
  C        25.0749704996        7.5528703328        9.4703850503
  C        24.3700198641        6.5541047350        8.7261530810
  C        38.3026724888       31.9295843453       13.8440533945
  C        37.5731195086       30.8397860416       13.1347680828
  C        36.6140416524       31.1430252158       12.1563607838
  C        35.9972370245       30.1222195500       11.4384035051
  C        36.3246775517       28.7732003058       11.6775262048
  C        37.2539345860       28.4774182436       12.6925495574
  C        37.8749831475       29.4969406898       13.4091775241
  C        35.7230544119       27.6810430326       10.8802838799
  C        35.7557267160       27.6953340874        9.4589888472
  C        36.4623458822       28.6974681967        8.7221520556
  C        25.6984854012        8.6214124579        8.7487140654
  C        25.7039494814        8.6346345593       11.5609602467
  C        38.3290647420       31.9621285417        2.1614655046
  C        37.6082303784       30.8886011137        2.9036995789
  C        36.6801406375       31.1967226201        3.9100843752
  C        36.0709253646       30.1777485216        4.6397292831
  C        36.3755912588       28.8253346598        4.3864150944
  C        37.2814026373       28.5272003619        3.3500547243
  C        37.8927575450       29.5426493948        2.6217341027
  C        35.7683806331       27.7256592097        5.1703541018
  C        35.7789431581       27.7180821442        6.5923344206
  C        36.4730849296       28.7086221442        7.3556333098
  C        46.1356194236       26.6208550888        7.2866160779
  C        46.0876020860       26.5799233206        4.4787109309
  C        22.4598362385        3.2557849769        2.2634461381
  C        23.1514614547        4.3648141662        2.9882754966
  C        24.1521739889        4.0793330365        3.9306827979
  C        24.7781052415        5.1098233755        4.6279937827
  C        24.4235674833        6.4554550448        4.4051435782
  C        23.4456188958        6.7342061535        3.4315746075
  C        22.8149124840        5.7039402639        2.7349967402
  C        25.0543924072        7.5540068182        5.1786045548
  C        25.0499104003        7.5486939885        6.6014255441
  C        24.3562155779        6.5532157599        7.3595459481
  C        26.6206224458       17.8547283886       13.7764933359
  C        25.3165290475       17.8985820629       13.0489474400
  C        25.0531359533       18.8999903743       12.1004667800
  C        23.8406847995       18.9185012986       11.4134201640
  C        22.8537619274       17.9408358983       11.6549650107
  C        23.1134633626       16.9624899144       12.6332428286
  C        24.3284595059       16.9371796047       13.3163478878
  C        21.5795384389       17.9275497321       10.8920800650
  C        21.5794256415       17.9059419459        9.4697007357
  C        22.7846862620       17.7793151141        8.7090689177
  C        34.4181788312       17.2251310085       13.8714722266
  C        35.7131382754       17.1664764192       13.1369166498
  C        35.9134237198       16.2087678024       12.1304006220
  C        37.1003924351       16.1894565530       11.4041248206
  C        38.1182554326       17.1289879041       11.6605792365
  C        37.9207598638       18.0655042793       12.6935349649
  C        36.7328310649       18.0882736450       13.4200615061
  C        39.3733268499       17.1385623099       10.8754968511
  C        39.3673680901       17.1507422975        9.4531612816
  C        38.1601428898       17.2691603551        8.6947689548
  C        20.3325246445       17.9254573469        8.7618361709
  C        20.3550135796       17.9317532061       11.5752355905
  C        34.4498039988       17.2349331561        2.1849911356
  C        35.7540100731       17.1303638915        2.8979090244
  C        35.9571714387       16.1601094265        3.8911940882
  C        37.1468262665       16.1429992699        4.6156872589
  C        38.1601624931       17.0878988968        4.3669542780
  C        37.9646914936       18.0270962543        3.3358614483
  C        36.7746669903       18.0537263736        2.6156588345
  C        39.4064504267       17.1136868964        5.1644825444
  C        39.3844874516       17.1363333305        6.5861692850
  C        38.1676800095       17.2583984714        7.3282453512
  C        35.1486293666       26.6385518291        7.2960483044
  C        35.1779269799       26.6554503017        4.4871078130
  C        26.5699155742       17.8231728574        2.3313089089
  C        25.2560354871       17.8693613776        3.0363104952
  C        24.9884748603       18.8758956863        3.9764729213
  C        23.7708328941       18.8991998201        4.6501381017
  C        22.7908805047       17.9161949761        4.4066185953
  C        23.0519370889       16.9350617597        3.4329891519
  C        24.2707192853       16.9092493215        2.7581357794
  C        21.5277605175       17.8968662531        5.1801884817
  C        21.5530119672       17.8883329253        6.6016335421
  C        22.7719357129       17.7706917927        7.3427511014
  C        14.0460705326       17.8283546547        2.2940479658
  C        15.3505211095       17.8840964891        3.0202082963
  C        15.6083237646       18.8873962785        3.9672863980
  C        16.8173114368       18.9069651787        4.6603549894
  C        17.8024203283       17.9258482773        4.4283940850
  C        17.5492560803       16.9464750536        3.4494534827
  C        16.3397881501       16.9224596564        2.7579852441
  C        19.0718285886       17.9076852183        5.1968452573
  C        19.0715480524       17.9055759702        6.6193349186
  C        17.8647219325       17.8091590875        7.3812011379
  C        46.8038864870       17.2171220295        2.1622983114
  C        45.5122647067       17.1515902017        2.9032836735
  C        45.3082272159       16.1764191381        3.8918522569
  C        44.1246516429       16.1557712637        4.6245919923
  C        43.1152309817       17.1099144701        4.3904785820
  C        43.3159452626       18.0632321761        3.3739002140
  C        44.5004051268       18.0882695927        2.6423903579
  C        41.8619831486       17.1210062308        5.1784449525
  C        41.8686712784       17.1314076337        6.6002444835
  C        43.0776607832       17.2346096314        7.3576854579
  C        20.3186769573       17.9154020342        7.3270497215
  C        20.2955977032       17.8861546686        4.5139743334
  C        46.7836940172       17.2333337384       13.8801953520
  C        45.4821438487       17.1328753609       13.1597449841
  C        45.2642007265       16.1414311157       12.1906592359
  C        44.0767849352       16.1192774986       11.4626887282
  C        43.0758931079       17.0854170998       11.6852639523
  C        43.2849171154       18.0470281079       12.6918299505
  C        44.4733839318       18.0758025835       13.4149750652
  C        41.8284587225       17.1102522557       10.8887076829
  C        41.8515806799       17.1251962728        9.4672536491
  C        43.0697509903       17.2286074849        8.7244974054
  C        46.1533896635       26.6372791049        8.7211589892
  C        46.1622521152       26.6559788533       11.5307987783
  C        14.0456416249       17.8314410511       13.7035263016
  C        15.3674766415       17.9050062329       13.0128418208
  C        15.6431694827       18.9214428944       12.0860740808
  C        16.8727052418       18.9579264292       11.4317766813
  C        17.8544435352       17.9770213766       11.6782250986
  C        17.5855553203       16.9893288952       12.6431903800
  C        16.3581038527       16.9524544525       13.3010288404
  C        19.1219737361       17.9509366890       10.9089668158
  C        19.0977090366       17.9267560898        9.4873668060
  C        17.8774497088       17.8187455443        8.7471851766
  C        28.8038403716       14.0872248720        2.3936227829
  C        28.1904524912       12.9154563959        3.0810679564
  C        28.9188160804       12.1648295049        4.0161662888
  C        28.3180802229       11.0915721670        4.6692406678
  C        26.9768300737       10.7445322129        4.4097917231
  C        26.2705882627       11.4745070411        3.4369445464
  C        26.8681028067       12.5489753719        2.7832491677
  C        26.3083646465        9.6654235108        5.1725959959
  C        26.3009324681        9.6916580546        6.5936085768
  C        26.8108805842       10.8028055531        7.3373561309
  C        32.1810918962       21.2423495859        2.1496756207
  C        32.7744612271       22.4085328263        2.8659813812
  C        32.0309816373       23.0782990524        3.8498922577
  C        32.6025895037       24.1161544143        4.5786786675
  C        33.9338321763       24.5117313311        4.3452458847
  C        34.6597431679       23.8603187655        3.3301117894
  C        34.0905705971       22.8170926351        2.6026686578
  C        34.5638921789       25.5850938597        5.1465700004
  C        34.5567619851       25.5546518311        6.5682725495
  C        34.0492149232       24.4386922836        7.3062818073
  C        25.6902859388        8.6155619131        7.3141314537
  C        25.6685591952        8.6158749026        4.5007465054
  C        32.1032238970       21.2261906516       13.8736333281
  C        32.6930030223       22.3760826039       13.1291541012
  C        31.9576558766       23.0373996068       12.1334998615
  C        32.5385313845       24.0672564419       11.3973914945
  C        33.8677519827       24.4659314957       11.6397529666
  C        34.5855635154       23.8181455787       12.6632186038
  C        34.0099322963       22.7823941382       13.3939819703
  C        34.5090772652       25.5468270650       10.8562093698
  C        34.5276351005       25.5360421607        9.4344430186
  C        34.0340359512       24.4302133311        8.6729597740
  C        40.6135301891       17.1229896915        8.7441658966
  C        40.5975986989       17.1345075411       11.5544136405
  C        28.7497934316       14.0640008488       13.8243005356
  C        28.1392806497       12.9191453992       13.0831017038
  C        28.8743599040       12.2260752236       12.1078224426
  C        28.2913247990       11.1731966173       11.4059333756
  C        26.9589815519       10.7863769769       11.6539414050
  C        26.2404075727       11.4691312357       12.6539153108
  C        26.8198243704       12.5230390489       13.3568078036
  C        26.3162434451        9.6960460503       10.8815829195
  C        26.3060098045        9.7083228044        9.4597346876
  C        26.8106270224       10.8125020835        8.7032133928
  C        18.1353934316        3.1809939739        2.3222601298
  C        17.4060747444        4.2782094849        3.0208738588
  C        16.3905828535        3.9998247391        3.9486367435
  C        15.7428721405        5.0397954768        4.6121591115
  C        16.0945322601        6.3835483586        4.3722707207
  C        17.0836133184        6.6530610160        3.4081898082
  C        17.7327127564        5.6157509964        2.7431059032
  C        15.4701911254        7.4912554963        5.1352633750
  C        15.4855756459        7.4906085989        6.5569695166
  C        16.1873108751        6.4971470938        7.3101749476
  C        42.9459479233       31.8594475135        2.0780498756
  C        43.6463222100       30.7718374004        2.8218894001
  C        44.5919461392       31.0931246798        3.8079061875
  C        45.1976291045       30.0875518216        4.5555336479
  C        44.8711090052       28.7344860862        4.3407354994
  C        43.9451918939       28.4201787760        3.3275832127
  C        43.3364136237       29.4253416893        2.5795542324
  C        45.4886258748       27.6551944367        5.1439725381
  C        45.4929965600       27.6810020171        6.5656591088
  C        44.8061007346       28.6891791523        7.3122792433
  C        14.8564913183        8.5630343305        7.2693280109
  C        14.8747017447        8.5628995390        4.4566599316
  C        42.9465298511       31.9614931677       13.8038479792
  C        43.6917608808       30.8854507928       13.0904620335
  C        44.6563354844       31.1913789983       12.1181209772
  C        45.2778782520       30.1718114608       11.4004138232
  C        44.9541229886       28.8214659416       11.6380266265
  C        44.0207613507       28.5237669957       12.6489272248
  C        43.3924956547       29.5405170207       13.3611088270
  C        45.5631477494       27.7240990280       10.8527478926
  C        45.5335775983       27.7175267465        9.4314453607
  C        44.8273709452       28.7078191048        8.6784634563
  C        35.1353616820       26.6279912208        8.7306915364
  C        35.1180620628       26.6056523398       11.5404126804
  C        18.1485358198        3.2470021697       13.7015104558
  C        17.4298479362        4.3438213253       12.9923206837
  C        16.4149063731        4.0525288827       12.0684578388
  C        15.7665452162        5.0831440371       11.3930951330
  C        16.1209157433        6.4284220824       11.6160572949
  C        17.1119841316        6.7118055733       12.5736432635
  C        17.7597230232        5.6829182053       13.2533778567
  C        15.4904606880        7.5241244982       10.8435925390
  C        15.4965186578        7.5075263703        9.4224584722
  C        16.1934940047        6.5059553405        8.6757806371
  H        10.6720891605       12.4659444217       11.8993867892
  H        11.6941154282       10.5510264355       10.6575680119
  H        15.3910945739       11.1680620633       12.7674009606
  H        14.3506724781       13.0709883671       14.0126570834
  H        13.3753181910       11.6307910703        9.1961802348
  H        50.3228838363       22.7489853976       11.9823499242
  H        49.3196127869       24.6233986047       10.6762547372
  H        45.6414572751       24.1600285647       12.8576385073
  H        46.6624076052       22.2891724883       14.1658831353
  H        47.6294289058       23.5757183051        9.2411376483
  H        14.8715007856        8.5880768060       12.6034714748
  H        50.2872585135       22.7034106310        4.0646263349
  H        49.2690920219       24.5762027296        5.3647482910
  H        45.6094918387       24.1075125370        3.1525207219
  H        46.6516621511       22.2522648936        1.8383138340
  H        47.6073634614       23.5516374752        6.8019570590
  H        40.6441251007       17.0838290188        3.4124037927
  H        48.6866587381       14.0949557774       15.7948301166
  H        10.6810705821       12.4665487664        4.0981417616
  H        11.6891308327       10.5245882297        5.3018957610
  H        15.3931864860       11.1584516232        3.2105065908
  H        14.3646894522       13.0869279123        1.9950713358
  H        13.3750087764       11.6217522405        6.7581549170
  H        47.9301437573       14.2175943045        1.7159893423
  H        47.7796179814       14.3720881664       14.4895064546
  H        49.0823751800       18.5518411549        2.8719752673
  H        10.4153047243       14.1343666323        0.0037014351
  H        24.4882818722        3.0331220251       11.9142478846
  H        25.6283074207        4.8944585560       10.6912824719
  H        23.2475099316        7.7568063759       12.8449093371
  H        22.1257842275        5.8857217446       14.0693629464
  H        23.8089805739        5.7983378395        9.2680473699
  H        36.3771141588       32.1861344088       11.9605916699
  H        35.2533410850       30.3606649882       10.6814124648
  H        37.5143045524       27.4384628862       12.8839409685
  H        38.6183597813       29.2766697343       14.1716363641
  H        37.0275335150       29.4469613232        9.2684806513
  H        25.7404439691        8.6180549275       12.6487514345
  H        36.4571399321       32.2408138624        4.1178607919
  H        35.3458334744       30.4221381294        5.4128618376
  H        37.5287370553       27.4871329535        3.1479886804
  H        38.6147357091       29.3175121938        1.8405814598
  H        37.0473726813       29.4663394523        6.8303795307
  H        46.1087946533       26.5870851265        3.3906692736
  H        44.6683597699       35.1161488132       15.8087784010
  H        24.4304821482        3.0412887132        4.0980690651
  H        25.5582172238        4.8814392934        5.3510720586
  H        23.1602446723        7.7685317514        3.2506511482
  H        22.0441167331        5.9162390924        1.9977088268
  H        23.7837830461        5.7974041148        6.8295993044
  H        44.9541864008       34.3906774369        1.7004116247
  H        44.9020366714       34.2069415937       14.4853484948
  H        40.6662114462       33.2090449781        2.8582126676
  H        23.1505761665        1.9577042136        0.0106830769
  H        25.8074430424       19.6634884840       11.9220559340
  H        23.6410976251       19.7011535454       10.6845020455
  H        22.3633975653       16.1987620194       12.8285594018
  H        24.5392492189       16.1680085433       14.0557059959
  H        23.7250959923       17.6555730879        9.2383995940
  H        35.1230996531       15.4915163226       11.9230829434
  H        37.2530199632       15.4386481330       10.6319757475
  H        38.6981418891       18.7991024197       12.8968869982
  H        36.5654987723       18.8258778839       14.2014690443
  H        37.2201788686       17.3958430677        9.2239346431
  H        20.3623293596       17.9716012572       12.6631152271
  H        35.1724204305       15.4431440006        4.1204144302
  H        37.2946786799       15.3915606973        5.3881898419
  H        38.7405186056       18.7633064257        3.1362853296
  H        36.6019064991       18.8000432516        1.8441274021
  H        37.2333895979       17.3717526939        6.7857725445
  H        35.1490091785       26.6824731205        3.3994726290
  H        28.5106418499       21.0881760646       15.9672835543
  H        25.7466065030       19.6333355011        4.1608969181
  H        23.5627429717       19.6833343108        5.3748715952
  H        22.3033454327       16.1695753579        3.2391721107
  H        24.4885832404       16.1394573631        2.0216898208
  H        23.7027742392       17.6412012329        6.7984381015
  H        28.9963964822       21.7237050502        1.7722295332
  H        29.1402118958       21.7582424414       14.6063024377
  H        32.1599910747       18.5823785985        2.9491586037
  H        27.4078804374       19.0806975379        0.0889501850
  H        14.8507845014       19.6474928302        4.1449167188
  H        17.0135063188       19.6913985818        5.3881708439
  H        18.2992676457       16.1808571732        3.2616286478
  H        16.1325977559       16.1531994891        2.0178548940
  H        16.9218431109       17.6948030273        6.8543184895
  H        46.0942588253       15.4487143243        4.0793375461
  H        43.9669926750       15.3926379457        5.3835706107
  H        42.5439170126       18.8071152724        3.1883931645
  H        44.6719339022       18.8391456780        1.8746900148
  H        44.0186306686       17.3493064789        6.8272392590
  H        20.2889084389       17.9154027988        3.4258325947
  H        46.0405934979       15.4014557149       12.0099352578
  H        43.9116623847       15.3488753426       10.7126081681
  H        42.5184184692       18.7980171748       12.8715371012
  H        44.6539453135       18.8376536113       14.1693401669
  H        44.0046527687       17.3374463940        9.2665869809
  H        46.1989787205       26.6823610347       12.6182516338
  H        52.7408464131       21.0624620291        0.1997448031
  H        14.8839287089       19.6766642446       11.8949402408
  H        17.0850301475       19.7492342557       10.7160262683
  H        18.3343929833       16.2251571872       12.8412015012
  H        16.1354219987       16.1769557216       14.0298924863
  H        16.9441342002       17.7117831571        9.2917722040
  H        52.3216165524       21.6728902106       14.2893980965
  H        52.0124836965       21.7014533535        1.5006655708
  H        49.0665972585       18.6074690615       13.1989876132
  H        13.2471424964       19.0165322796       15.9720806899
  H        29.9536016395       12.4339824550        4.2169261402
  H        28.8837644491       10.5088489810        5.3930875351
  H        25.2343358385       11.2154861572        3.2296653766
  H        26.3208862598       13.1345239503        2.0485568964
  H        27.1767664032       11.6698132511        6.7956152820
  H        31.0097058007       22.7578461752        4.0397131788
  H        32.0218141921       24.6344618572        5.3383778471
  H        35.6903838067       24.1560234994        3.1450216431
  H        34.6574330697       22.2879476444        1.8401045453
  H        33.6948540257       23.5681614422        6.7615329488
  H        25.6953464845        8.5967665804        3.4126625391
  H        30.9333492899       22.7242295919       11.9445919329
  H        31.9629604864       24.5809532869       10.6304963683
  H        35.6146684369       24.1147158062       12.8550861865
  H        34.5696980028       22.2594206247       14.1658129238
  H        33.6688017881       23.5530408022        9.1998483558
  H        40.5912031624       17.0949034548       12.6420482535
  H        32.5279556233       14.1509585032        0.2534694807
  H        29.9026986747       12.5255844987       11.9177595663
  H        28.8692711703       10.6323288480       10.6597071996
  H        25.2089239962       11.1840383494       12.8506633244
  H        26.2622514075       13.0655829984       14.1166201076
  H        27.1755973245       11.6877524099        9.2328107530
  H        33.3004749093       14.2141556240       14.4337282271
  H        33.4030409317       14.3480530114        1.6406963428
  H        32.0839253171       18.5318180232       13.1478233893
  H        30.2376057989       14.1920116704        0.0694776152
  H        16.1187007374        2.9633027865        4.1351974645
  H        14.9535621697        4.8203888815        5.3279644674
  H        17.3657482689        7.6859694058        3.2148304996
  H        18.5145079837        5.8184154878        2.0150029218
  H        16.7539861495        5.7398810744        6.7767000362
  H        44.8283809401       32.1401773607        3.9820468880
  H        45.9375999248       30.3412644363        5.3113873523
  H        43.6824357387       27.3781207496        3.1574862773
  H        42.5998132255       29.1899596558        1.8148924660
  H        44.2307997405       29.4369969485        6.7739936702
  H        14.8507974824        8.5460091622        3.3684445434
  H        44.8998827048       32.2340498280       11.9266338355
  H        46.0247423429       30.4130469568       10.6471384517
  H        43.7638576936       27.4840279550       12.8405294491
  H        42.6461144161       29.3176315213       14.1196393066
  H        44.2689521529       29.4707928691        9.2130126999
  H        35.0742669978       26.6184576789       12.6278273829
  H        36.6051444270       35.1340093220        0.1857793739
  H        16.1439874703        3.0129370397       11.8985675770
  H        14.9743832985        4.8562722253       10.6828358461
  H        17.3951814672        7.7473083972       12.7508119589
  H        18.5423316287        5.8933868340       13.9784228335
  H        16.7650167726        5.7557992229        9.2142401950
  H        36.2786071961       34.4825044053       14.2679859668
  H        36.3810786988       34.2091066244        1.5047897681
  H        40.5806546134       33.2027198230       13.1485081660
  H        17.4707967090        1.9473699296       15.9690573050
  H        28.7709010253       18.9789022669        4.3683883452
  H        28.9000217617       18.3646157266       11.8875040361
  H        31.7855285406       15.8927303828       11.5579028375
  H        30.9653801134       15.4085528798        4.3335959257
  H        28.5749037871       17.1949099512        6.8314756186
  H        29.6426993534       14.9781774054        7.0276474641
  H        30.5534782380       20.0756567942       10.0683110667
  H        32.7234506127       17.7246048979        9.3918512568
  H        18.8534731208        0.8690415594        4.3402984946
  H        40.5279022151       35.2290339884       11.9469444489
  H        42.3244274134       34.4192939072       11.5852801769
  H        22.0878514662        0.6917794358        4.3568744601
  H        11.5971039878       18.7129627454        4.3872430230
  H        52.2647060925       18.4307318226       11.6723861755
  H        49.2549867210       16.4768694769       11.5794481263
  H        10.1501977763       15.7981272469        4.2980712875
  H        50.8495694074       17.6923508350       11.9492697806
  H        10.0460216006       17.3944253270        4.0571285850
  H        20.2147903251        0.0022210802        4.0470938091
  H        39.1836100212       36.1244137160       11.6813853204
 Ni        30.9892086547       17.9391218033       10.9101923822
 Ni        31.1151521181       16.3951299131        8.3232967832
 Ni        30.1006155477       18.7993960903        7.9115771909
 Ni        30.3101132328       17.4452150622        5.2502172392
  O        10.6497759469       14.3651325628       13.4806862282
  O        12.6131220259       14.6575413617       14.5787293669
  O        49.1479251776       16.8459985557       15.9846078337
  O        50.3502044824       20.9359868361       13.6430311872
  O        48.3485446155       20.5933335641       14.6608407722
  O        11.0512175689       17.0539452391       14.4954228646
  O        50.3209639053       20.8817099666        2.4119106964
  O        48.3467450530       20.5867611718        1.3321384236
  O        49.5436391120       18.2484674776        2.0733362414
  O        12.3588392335       18.6245022049        0.0047916718
  O        48.6931707307       14.1487825895       14.7461157283
  O         8.2098746305       14.2103370489        1.3275910475
  O        10.7353981064       14.5067284254        2.6694476908
  O        12.5717921513       14.5828671747        1.3335548269
  O        22.8447359804        2.0436305982       13.4819646880
  O        21.6056547520        3.5925109893       14.5845000793
  O        42.0582659246       34.1374126263       15.9738703065
  O        37.9817869201       33.1378483342       13.5674157818
  O        39.2181643011       31.5761459069       14.6616008688
  O        20.3084896756        1.0396668445       14.4969226167
  O        38.0246685156       33.1857908204        2.4203137643
  O        39.2192208555       31.5838002047        1.3314778474
  O        40.6522770964       33.7693193831        2.0653081053
  O        18.2554694529        1.3761817052        0.0018879309
  O        44.6222197735       35.1005676330       14.7536141036
  O        24.2053870532        0.0000366526        1.3258998466
  O        22.7529941152        2.0578926057        2.5890703723
  O        21.6243871113        3.5960901518        1.3477071856
  O        27.4982323783       18.7487946632       13.4872711168
  O        26.7641021913       16.9351570233       14.6508660185
  O        30.6670300090       19.4078797403        0.0752371803
  O        33.5377489842       16.3403053321       13.5803636144
  O        34.2721688499       18.1680561872       14.7251648704
  O        29.5725300337       17.0680561431       14.5751756781
  O        33.5585058262       16.3430518386        2.4194489649
  O        34.2998731053       18.2423143497        1.4103691178
  O        31.6500192001       18.3139730388        2.1682977053
  O        30.3248395875       15.1592741639        0.0883045230
  O        28.5530594138       21.0371174160       14.8969190204
  O        28.5134877912       20.9583006811        1.4165566226
  O        27.4598721724       18.6761603765        2.6675597247
  O        26.6944170919       16.9303036163        1.4179782209
  O        13.1489909443       18.6929303601        2.5926571494
  O        13.9194179675       16.9161260036        1.4100579728
  O        50.5956872176       19.3501045333        0.0254220998
  O        47.6836211062       16.3269542769        2.4221654253
  O        46.9517218641       18.1757224488        1.3296676958
  O        11.0695853243       17.0155748785        1.4948397365
  O        47.6741211707       16.3361469406       13.6471539510
  O        46.9260466129       18.2359761875       14.6586655909
  O        49.5682457381       18.3176840597       13.9769985837
  O        10.3184497214       15.1002717333        0.0021196673
  O        52.6707480885       21.0279014190        1.2469470445
  O        12.1468368798       20.8910985309       14.6680334044
  O        13.1087314215       18.6135825975       13.3203378161
  O        13.9575167347       16.9870296720       14.6602171925
  O        29.9899269369       14.4376594127        2.7305044090
  O        28.0881665422       14.6541818386        1.4980768602
  O        32.1371964783       16.8631353937        0.0711081136
  O        30.9663786782       20.9507884339        2.4166710963
  O        32.9468546009       20.6020320425        1.3446375542
  O        29.5685766067       17.0788634100        1.5830830830
  O        30.8715743409       20.9429651481       13.6541937272
  O        32.8774215049       20.5900737019       14.6623651985
  O        31.6540191086       18.3078287272       13.9938119015
  O        28.2924498395       18.6798418285        0.0814568675
  O        32.4899113248       14.2105453962        1.3294257738
  O        32.4053203617       14.2264703956       14.8121869841
  O        29.9213454976       14.4370588670       13.4912676663
  O        28.0393665918       14.5897214242       14.7511680330
  O        17.8892665646        1.9666321554        2.6679188849
  O        18.9562251887        3.5271560122        1.4130702994
  O        39.1687149797       34.1388402122        0.0023035877
  O        43.2801934061       33.0589693022        2.3368018641
  O        42.0345198525       31.5065131517        1.2467095127
  O        20.3177155668        1.0368342296        1.4852914853
  O        43.2760263442       33.1825776028       13.5698433218
  O        42.0052486092       31.5841322434       14.5778820957
  O        40.5791024545       33.7751642690       13.9308023466
  O        22.3673455099        1.3846364551        0.0029956013
  O        36.6727671254       35.0997877966        1.2384182448
  O        16.4455464352        0.0642991630       14.6631723072
  O        17.9365034274        2.0433899042       13.3212887554
  O        18.9190676074        3.5931310329       14.6608188054
  O        29.7391666375       18.8297784797       12.0750391168
  O        29.7069687355       19.0429685017        4.0859984587
  O        31.1377945732       16.4105302833       12.0747562379
  O        31.3013839579       16.2705072729        4.0127933706
  O        32.1609059379       17.0105499925        9.7510901734
  O        30.3396161664       15.6213552226        6.8199471568
  O        31.5541140168       17.8913251777        6.8258090687
  O        31.0400651112       19.3420651183        9.6502121615
  O        28.8119279653       18.0803841258        6.4965988392
  O        39.4567518307       35.2437685624       11.9968828284
  O        19.1413851993        0.0045600898        3.9956136316
  O        41.9696260105       35.1728424909       12.0821190224
  O        21.6911863685       -0.0693603023        3.9009923558
  O        51.3649497585       18.6142224694       12.0003717917
  O        10.7511845752       18.7472809074        3.9099662676
  O        50.0795221274       16.4128349050       12.0866480158
  O         9.5245449953       16.4830480086        3.9963468716
 Zr         9.2952541603       16.0528877202       14.1771783640
 Zr        49.8353586385       16.0066585546        1.7517480500
 Zr        22.0734258459        0.0297658011       14.1838963319
 Zr        42.4610822251       35.1532859079        1.8060591389
 Zr        29.6054698808       19.1185417335       14.2788129743
 Zr        29.5870765421       19.1830649587        1.8708762996
 Zr        11.0370278575       19.0519728362        1.8325560535
 Zr        11.0429161391       19.1547987660       14.2462901713
 Zr        31.3587125529       16.0952376213        1.8558349154
 Zr        31.3815735662       16.0392957925       14.2721642613
 Zr        18.6012603015       -0.0013188905        1.7684403534
 Zr        18.5065712464       -0.0076327554       14.2087419425
 Zr        12.3007669578       16.3235501088       15.9850128504
 Zr        48.6146939180       18.8326356633        0.0151806904
 Zr        20.3151897735        2.4733730846       15.9853592652
 Zr        40.6438052547       32.6870144975       15.9731398490
 Zr        28.3495350256       16.3432388942        0.0876250904
 Zr        32.6357354395       18.8485976063        0.0495112665
  H        32.3759106145       18.3942334699        6.6991693849
  O        28.6311054591       15.6159206965       10.9075709640
  H        29.4578501118       15.7259085797       11.4312284944
  H        28.2152094744       14.8204759759       11.2767115544
  O        33.4162177802       15.0965145446        5.6643537912
  H        32.7198193198       14.9473124249        6.3289633267
  H        32.9559220340       15.6726866439        5.0188581597
  O        28.2110641884       19.5625282634        8.6617701690
  H        27.8359024340       19.0923560930        7.8768286019
  H        27.9381722600       19.0431942824        9.4395944163
  O        30.2889521751       20.5173061875        6.4967260849
  H        30.1281264738       20.1190183452        5.5963253557
  H        29.5859284759       21.1770994206        6.6116179715
  H        30.4200830156       15.5192828098        9.2277740944
