     583
 i =      234, E =     -4830.6091055049
  C        11.8583949073       14.0535992834       13.7364718868
  C        12.4559034949       12.8904826513       13.0181952580
  C        11.7042811672       12.1717989455       12.0763182189
  C        12.2805972905       11.1095518563       11.3839353927
  C        13.6210616334       10.7395198221       11.6118685654
  C        14.3541219947       11.4427656219       12.5856586151
  C        13.7812658099       12.5077481118       13.2771874630
  C        14.2606630430        9.6488800221       10.8384875277
  C        14.2561957946        9.6568676129        9.4167769589
  C        13.7428182966       10.7588693446        8.6628314516
  C        49.1266006018       21.2332816745       13.8746448779
  C        48.5497887759       22.4010844028       13.1474558006
  C        49.2999873964       23.0687906476       12.1668461540
  C        48.7330186708       24.1078759161       11.4336143328
  C        47.4022919502       24.5090928832       11.6618790115
  C        46.6710647340       23.8597019515       12.6748440068
  C        47.2335573786       22.8148322989       13.4042227935
  C        46.7721448726       25.5868686265       10.8646220044
  C        46.7612635233       25.5573387345        9.4428607932
  C        47.2611636669       24.4422069469        8.6994043179
  C        14.8602495690        8.5705789613        8.7035215717
  C        14.8914253250        8.5969084191       11.5151245981
  C        49.1129669395       21.2033844905        2.1504086953
  C        48.5275056012       22.3645675064        2.8777411863
  C        49.2669884886       23.0258903638        3.8700660512
  C        48.6905934923       24.0603957721        4.6015342255
  C        47.3599081775       24.4565443747        4.3638025446
  C        46.6391197105       23.8108831787        3.3410461825
  C        47.2127328666       22.7749879415        2.6092832485
  C        46.7215196510       25.5315795132        5.1547998630
  C        46.7335116300       25.5281378753        6.5764900636
  C        47.2488734147       24.4288804390        7.3328537947
  C        40.6224845001       17.1134213666        7.3084373764
  C        40.6368842436       17.1152129629        4.4990364201
  C        11.8827469565       14.0865055771        2.2904796978
  C        12.4720220777       12.9105016875        2.9946595848
  C        11.7144813775       12.1774434066        3.9208409194
  C        12.2809826501       11.0949522793        4.5893229667
  C        13.6197171078       10.7210241078        4.3573911312
  C        14.3576503246       11.4363387096        3.3963621217
  C        13.7922950992       12.5175218231        2.7236281439
  C        14.2533836558        9.6243506610        5.1278771700
  C        14.2522942364        9.6444266554        6.5497223903
  C        13.7422847748       10.7533223443        7.2967826524
  C        22.5122652912        3.2447175780       13.7481590358
  C        23.2277138550        4.3507437232       13.0493662221
  C        24.2258301311        4.0714662664       12.1041407615
  C        24.8533109175        5.1114277397       11.4228682801
  C        24.4984384335        6.4531513144       11.6665251908
  C        23.5285825978        6.7240518184       12.6489046554
  C        22.8965158279        5.6858425405       13.3285458136
  C        25.1040602507        7.5598030070       10.8903405150
  C        25.0749131585        7.5525649123        9.4687710538
  C        24.3700998510        6.5538590878        8.7243656528
  C        38.3030927022       31.9295645364       13.8439020131
  C        37.5747515348       30.8395245376       13.1343704231
  C        36.6165551665       31.1419830482       12.1548958164
  C        36.0011532017       30.1205358106       11.4367542073
  C        36.3290405014       28.7718159305       11.6769770822
  C        37.2574584972       28.4768590229       12.6929886394
  C        37.8771747069       29.4969837619       13.4097273797
  C        35.7279333534       27.6791943742       10.8803472162
  C        35.7594702791       27.6934422587        9.4591029458
  C        36.4659641603       28.6951806161        8.7216337284
  C        25.6989347155        8.6209809390        8.7472879788
  C        25.7027043595        8.6347895794       11.5593909949
  C        38.3284168232       31.9618130130        2.1613996824
  C        37.6062815818       30.8886629896        2.9030394870
  C        36.6802120652       31.1975418515        3.9111554491
  C        36.0700105954       30.1791431333        4.6408381265
  C        36.3713067404       28.8262224889        4.3859366081
  C        37.2747063075       28.5274173481        3.3475646371
  C        37.8872907718       29.5423060230        2.6193139967
  C        35.7636034321       27.7269082422        5.1704000664
  C        35.7775752797       27.7179225622        6.5924422367
  C        36.4743503750       28.7071090504        7.3551038670
  C        46.1356497408       26.6208750988        7.2865815162
  C        46.0875775453       26.5798935099        4.4786894110
  C        22.4599836849        3.2555702305        2.2630982039
  C        23.1522512561        4.3645069586        2.9875223361
  C        24.1531693801        4.0786190981        3.9295392667
  C        24.7797387661        5.1088822796        4.6265591238
  C        24.4256053147        6.4545543404        4.4035881470
  C        23.4474546611        6.7337516526        3.4304051706
  C        22.8161055550        5.7036706227        2.7341405831
  C        25.0568148297        7.5528487620        5.1770163304
  C        25.0512154089        7.5480146700        6.5998341627
  C        24.3568835704        6.5528170247        7.3577425633
  C        26.6146572348       17.8527721686       13.7814770109
  C        25.3106112402       17.8912574127       13.0522791670
  C        25.0417914909       18.8990194212       12.1119734709
  C        23.8308740806       18.9151769875       11.4222484882
  C        22.8503537180       17.9288393413       11.6540523495
  C        23.1149172253       16.9438009492       12.6241162835
  C        24.3288901442       16.9209709837       13.3096640554
  C        21.5767585784       17.9156295879       10.8902817367
  C        21.5777394281       17.9005326866        9.4679652495
  C        22.7839150690       17.7827517753        8.7073450022
  C        34.4245059843       17.2218760783       13.8790063128
  C        35.7191831962       17.1647907482       13.1428485635
  C        35.9175153041       16.2080913761       12.1349979424
  C        37.1029191183       16.1893023565       11.4063247260
  C        38.1214108020       17.1282764725       11.6618835321
  C        37.9258075589       18.0642043758       12.6958113287
  C        36.7391372471       18.0865946152       13.4245793897
  C        39.3755123664       17.1370334915       10.8753899744
  C        39.3687109977       17.1465807517        9.4529992313
  C        38.1610825240       17.2637282713        8.6951150939
  C        20.3311930115       17.9195451557        8.7596380478
  C        20.3521985252       17.9159074749       11.5730968337
  C        34.4482591988       17.2340874826        2.1886659357
  C        35.7527576360       17.1253075047        2.8994723897
  C        35.9520050009       16.1573013038        3.8957331273
  C        37.1423218614       16.1375574567        4.6191318589
  C        38.1591759197       17.0778827871        4.3669265121
  C        37.9669387951       18.0145674911        3.3328838619
  C        36.7768507823       18.0435424343        2.6131054669
  C        39.4055514682       17.1032977174        5.1641269482
  C        39.3842350426       17.1275585422        6.5858566989
  C        38.1679276318       17.2509437552        7.3285944380
  C        35.1478447360       26.6383093805        7.2967602978
  C        35.1697631089       26.6581439887        4.4877847882
  C        26.5695638727       17.8228029245        2.3306178572
  C        25.2552950116       17.8722108740        3.0344297877
  C        24.9849841843       18.8843786912        3.9677710866
  C        23.7675233894       18.9082622535        4.6419693704
  C        22.7906872599       17.9208511053        4.4048353787
  C        23.0540223097       16.9343747863        3.4372308247
  C        24.2726545769       16.9076014285        2.7623202875
  C        21.5275481802       17.9017165202        5.1784810698
  C        21.5525969973       17.8920165536        6.5998378175
  C        22.7719154481       17.7787080393        7.3409867062
  C        14.0459142783       17.8286337386        2.2935593961
  C        15.3507008439       17.8850846155        3.0188654050
  C        15.6077104016       18.8875565911        3.9669636099
  C        16.8168410260       18.9073924948        4.6596695546
  C        17.8027025666       17.9275501179        4.4258671481
  C        17.5504978930       16.9492657096        3.4456676712
  C        16.3407581500       16.9248281436        2.7548003893
  C        19.0718527052       17.9092334641        5.1944268218
  C        19.0710677348       17.9038689052        6.6168240471
  C        17.8640250150       17.8033599986        7.3778955538
  C        46.8035671857       17.2165379929        2.1618294628
  C        45.5115488738       17.1491444600        2.9018741397
  C        45.3083195075       16.1726456873        3.8893285327
  C        44.1246234292       16.1498330603        4.6217247413
  C        43.1141747136       17.1030380191        4.3883758625
  C        43.3138778521       18.0574849778        3.3726377323
  C        44.4985426633       18.0846923021        2.6414353248
  C        41.8611769065       17.1123766173        5.1768550030
  C        41.8685310119       17.1236848028        6.5986557463
  C        43.0778978446       17.2278533060        7.3552985278
  C        20.3179445714       17.9141184753        7.3249263538
  C        20.2957572512       17.8902188965        4.5118442427
  C        46.7841805887       17.2333397100       13.8799945994
  C        45.4832782318       17.1328287888       13.1588122539
  C        45.2661905964       16.1411315572       12.1897917978
  C        44.0791818985       16.1184538122       11.4612860991
  C        43.0780324640       17.0844412283       11.6832679348
  C        43.2863436475       18.0465519581       12.6895103784
  C        44.4743572796       18.0757563830       13.4132729226
  C        41.8305815822       17.1083312424       10.8870049285
  C        41.8529224899       17.1209350484        9.4655547272
  C        43.0707188007       17.2232622803        8.7221107226
  C        46.1534279224       26.6373230454        8.7211217357
  C        46.1621466588       26.6559324326       11.5307723118
  C        14.0447763745       17.8297981548       13.7026649078
  C        15.3655917925       17.8991082837       13.0098003820
  C        15.6440856784       18.9157360419       12.0842003643
  C        16.8734247838       18.9487778324       11.4294475843
  C        17.8517918651       17.9642223499       11.6745171155
  C        17.5797489936       16.9754235928       12.6373123094
  C        16.3525666388       16.9421163468       13.2957031845
  C        19.1196341057       17.9371392102       10.9061674032
  C        19.0961516409       17.9166852906        9.4846429386
  C        17.8762170382       17.8092677911        8.7438898568
  C        28.8054117231       14.0889764100        2.3954882422
  C        28.1939122860       12.9146447042        3.0807838247
  C        28.9222175546       12.1638534148        4.0158059612
  C        28.3217063252       11.0901581902        4.6684948426
  C        26.9806612879       10.7425709797        4.4084881843
  C        26.2747946571       11.4721663902        3.4350861428
  C        26.8721411996       12.5469636788        2.7818097354
  C        26.3117309471        9.6636206374        5.1711313827
  C        26.3030490933        9.6903861589        6.5921048271
  C        26.8125323034       10.8017007365        7.3358805983
  C        32.1790060445       21.2392812217        2.1552618421
  C        32.7682355915       22.4079124719        2.8704810496
  C        32.0267689222       23.0721117136        3.8596519527
  C        32.5972892721       24.1121387783        4.5863956433
  C        33.9254745643       24.5143670269        4.3467999309
  C        34.6488628655       23.8683242581        3.3263284807
  C        34.0807256141       22.8238627556        2.6001739670
  C        34.5566947104       25.5873494628        5.1477002608
  C        34.5536665713       25.5552850734        6.5695319098
  C        34.0480843070       24.4387511608        7.3081365125
  C        25.6916449147        8.6147393283        7.3126672177
  C        25.6719564544        8.6141221996        4.4991969452
  C        32.1052296453       21.2277972429       13.8792284408
  C        32.6965258666       22.3788333772       13.1365828110
  C        31.9613095751       23.0401461316       12.1408428725
  C        32.5429029590       24.0679333296       11.4024384729
  C        33.8729093795       24.4649025933       11.6428580963
  C        34.5907711593       23.8174080853       12.6665684621
  C        34.0143426536       22.7833364042       13.3994090781
  C        34.5141390614       25.5449599386       10.8578966868
  C        34.5308605990       25.5345479623        9.4360358620
  C        34.0357270001       24.4292678369        8.6748522369
  C        40.6144417334       17.1174822999        8.7432318406
  C        40.6002062182       17.1338126489       11.5534171575
  C        28.7480967710       14.0632789643       13.8239913834
  C        28.1364937861       12.9198463431       13.0818560043
  C        28.8700884925       12.2307978413       12.1030222508
  C        28.2881946074       11.1770333576       11.4022907752
  C        26.9571427038       10.7868504941       11.6529066686
  C        26.2393484773       11.4666552264       12.6553419378
  C        26.8188827336       12.5203120876       13.3589871267
  C        26.3152253251        9.6963755433       10.8802933174
  C        26.3061519544        9.7079955149        9.4583739095
  C        26.8114012960       10.8118463496        8.7017178193
  C        18.1353857099        3.1809149349        2.3222411593
  C        17.4060015869        4.2781400893        3.0208307444
  C        16.3905636563        3.9997253270        3.9486365182
  C        15.7427817585        5.0396626082        4.6121518912
  C        16.0943623328        6.3834224137        4.3722069104
  C        17.0833701684        6.6529894910        3.4080648107
  C        17.7325209202        5.6156919406        2.7430139617
  C        15.4700212219        7.4911095691        5.1352335672
  C        15.4855134727        7.4905541615        6.5569423013
  C        16.1872647732        6.4970853375        7.3101284226
  C        42.9459374782       31.8594123724        2.0780403484
  C        43.6462793246       30.7718233077        2.8219132095
  C        44.5920804310       31.0930904812        3.8077717879
  C        45.1977539941       30.0875057679        4.5553879355
  C        44.8710633469       28.7344600150        4.3407164375
  C        43.9450259433       28.4201681413        3.3276732957
  C        43.3362466251       29.4253406838        2.5796566536
  C        45.4886071650       27.6551714012        5.1439390498
  C        45.4930097491       27.6810083372        6.5656237111
  C        44.8061148611       28.6891880247        7.3122408156
  C        14.8565271291        8.5630473234        7.2692909222
  C        14.8745381722        8.5627574577        4.4566277455
  C        42.9465003368       31.9614358063       13.8038532752
  C        43.6917090837       30.8854130846       13.0904345131
  C        44.6563570202       31.1913432498       12.1181671182
  C        45.2778548915       30.1717609143       11.4004459608
  C        44.9540415444       28.8214197542       11.6379925718
  C        44.0204629743       28.5237483324       12.6486953084
  C        43.3922190640       29.5404918350       13.3609030964
  C        45.5630768516       27.7240613777       10.8527117194
  C        45.5335404538       27.7175232785        9.4314109293
  C        44.8273827496       28.7078459999        8.6784238853
  C        35.1375146181       26.6266708415        8.7314803746
  C        35.1239314176       26.6037737620       11.5412882414
  C        18.1485079110        3.2469334990       13.7015192708
  C        17.4298328374        4.3437816526       12.9922993096
  C        16.4148680486        4.0524890150       12.0684692556
  C        15.7665521529        5.0830952039       11.3930396404
  C        16.1208887267        6.4283690065       11.6160576599
  C        17.1119119646        6.7117704062       12.5736876755
  C        17.7595901070        5.6828807434       13.2534779945
  C        15.4904764541        7.5240779214       10.8435642415
  C        15.4965843179        7.5075509157        9.4224278154
  C        16.1934739498        6.5059300640        8.6757350582
  H        10.6722060203       12.4660855239       11.8991761653
  H        11.6942576023       10.5512065181       10.6573262142
  H        15.3910060330       11.1678068797       12.7676775268
  H        14.3505194459       13.0706969686       14.0129966197
  H        13.3754795752       11.6308620292        9.1961350167
  H        50.3228290684       22.7490319771       11.9823820677
  H        49.3195624094       24.6234397508       10.6762871149
  H        45.6413247111       24.1599181783       12.8575356807
  H        46.6622790967       22.2890936789       14.1657780388
  H        47.6294692568       23.5757441015        9.2411136752
  H        14.8714631575        8.5880191009       12.6034266459
  H        50.2872632622       22.7035174527        4.0645221453
  H        49.2691084014       24.5763074428        5.3646367025
  H        45.6093870011       24.1073936083        3.1526180596
  H        46.6515529014       22.2521593312        1.8384292803
  H        47.6074249112       23.5516756596        6.8019386668
  H        40.6425327080       17.0726384054        3.4115552694
  H        48.6866824579       14.0949409091       15.7948347809
  H        10.6810470174       12.4666571415        4.0982758271
  H        11.6890792382       10.5246669815        5.3020232278
  H        15.3929726760       11.1581493881        3.2102753591
  H        14.3645135012       13.0867049002        1.9948578183
  H        13.3751006732       11.6217652543        6.7581107273
  H        47.9301424863       14.2174741768        1.7159599945
  H        47.7796358981       14.3720674343       14.4895012792
  H        49.0820944886       18.5517947075        2.8718838365
  H        10.4152364695       14.1343531894        0.0036949046
  H        24.4876479578        3.0330488742       11.9134673595
  H        25.6272616047        4.8941857904       10.6898815731
  H        23.2467730811        7.7567753628       12.8435533476
  H        22.1254819471        5.8858217761       14.0685998151
  H        23.8087547482        5.7982341862        9.2661513322
  H        36.3792475871       32.1848848178       11.9585061825
  H        35.2577823884       30.3580778326       10.6789729476
  H        37.5180054872       27.4380966077       12.8851599340
  H        38.6199199866       29.2775447502       14.1730209386
  H        37.0328345940       29.4437896821        9.2674298624
  H        25.7387225300        8.6183801604       12.6471981992
  H        36.4595900428       32.2418511834        4.1203764469
  H        35.3467562091       30.4244506237        5.4154059491
  H        37.5193988332       27.4870433711        3.1438438845
  H        38.6075143228       29.3161966240        1.8368093576
  H        37.0485618640       29.4645316720        6.8293567976
  H        46.1086738643       26.5870207862        3.3906451745
  H        44.6683054486       35.1160920274       15.8087791430
  H        24.4310071127        3.0404436467        4.0968840556
  H        25.5599173171        4.8802955265        5.3495002641
  H        23.1624331965        7.7681822810        3.2495461600
  H        22.0451234402        5.9160928056        1.9970809064
  H        23.7845026380        5.7970691343        6.8276573067
  H        44.9540288849       34.3905526653        1.7003258193
  H        44.9019298519       34.2069184196       14.4853210464
  H        40.6659010625       33.2087698957        2.8581066248
  H        23.1505997774        1.9575207957        0.0105144716
  H        25.7898928656       19.6712434090       11.9445253149
  H        23.6268737747       19.7030501836       10.7001609908
  H        22.3692299110       16.1738765544       12.8118388066
  H        24.5433863009       16.1476552493       14.0437415527
  H        23.7248154917       17.6638046029        9.2368371110
  H        35.1266491789       15.4914262741       11.9279280166
  H        37.2537469059       15.4391397810       10.6332191616
  H        38.7036133405       18.7976272251       12.8982031315
  H        36.5729810414       18.8237701533       14.2067017608
  H        37.2213259432       17.3912783385        9.2244577035
  H        20.3590425879       17.9519860899       12.6611045611
  H        35.1627966286       15.4458350125        4.1282487002
  H        37.2880116530       15.3879181401        5.3937936088
  H        38.7454313353       18.7472771245        3.1308558127
  H        36.6065075585       18.7880173838        1.8392596018
  H        37.2332368357       17.3637349750        6.7867158483
  H        35.1378943707       26.6863324867        3.4002576086
  H        28.5133854409       21.0858734056       15.9736060669
  H        25.7401347964       19.6461912754        4.1466026915
  H        23.5575575641       19.6963486588        5.3618852028
  H        22.3073101347       16.1658112356        3.2484387733
  H        24.4927888601       16.1337766119        2.0307800860
  H        23.7037635555       17.6570792149        6.7964866640
  H        29.0047106216       21.7184646967        1.7701438108
  H        29.1376680948       21.7578607270       14.6071071452
  H        32.1315791912       18.5639375933        2.9830394224
  H        27.4094226302       19.0808090666        0.1015264483
  H        14.8493761725       19.6465788351        4.1457629947
  H        17.0125490410       19.6908773782        5.3886373779
  H        18.3013320949       16.1847759288        3.2565706982
  H        16.1338957785       16.1563740561        2.0137477543
  H        16.9215415546       17.6891133900        6.8502783304
  H        46.0951915624       15.4457594287        4.0764131381
  H        43.9677157029       15.3858680853        5.3800219998
  H        42.5409705360       18.8005739186        3.1876186673
  H        44.6693163733       18.8365005706        1.8744697057
  H        44.0185970818       17.3420821638        6.8242963334
  H        20.2893804081       17.9204280686        3.4237335048
  H        46.0428646217       15.4012940984       12.0097586161
  H        43.9144587409       15.3477052662       10.7114800902
  H        42.5195391165       18.7973920636       12.8685205845
  H        44.6544051512       18.8378132962       14.1675471665
  H        44.0059047242       17.3328133522        9.2635619765
  H        46.1987685240       26.6822909728       12.6182291426
  H        52.7408763916       21.0624756430        0.1997698440
  H        14.8873929554       19.6739073855       11.8945914180
  H        17.0885159181       19.7403556900       10.7148294008
  H        18.3259352276       16.2082480475       12.8336916945
  H        16.1271721438       16.1663288399       14.0234081189
  H        16.9429172509       17.6995935957        9.2879947042
  H        52.3217481160       21.6729146774       14.2893054603
  H        52.0126245852       21.7016032045        1.5006951567
  H        49.0666233134       18.6075351826       13.1989919154
  H        13.2470574471       19.0165644381       15.9717667594
  H        29.9568101729       12.4337598524        4.2165646303
  H        28.8872680420       10.5072314261        5.3922895529
  H        25.2388598371       11.2125123955        3.2269729644
  H        26.3251423302       13.1323459696        2.0468150357
  H        27.1790617266       11.6681784174        6.7937299414
  H        31.0088864519       22.7450916785        4.0565474096
  H        32.0178895537       24.6261167595        5.3500702013
  H        35.6771144444       24.1690847751        3.1362015684
  H        34.6457662784       22.2989851544        1.8333380234
  H        33.6923659742       23.5685748416        6.7637589500
  H        25.6994918119        8.5945081340        3.4111416667
  H        30.9364532207       22.7281321753       11.9530962602
  H        31.9671892011       24.5809573612       10.6352027484
  H        35.6205130323       24.1127163702       12.8569981402
  H        34.5743276114       22.2600204454       14.1709009260
  H        33.6706913534       23.5520205450        9.2018092124
  H        40.5944529004       17.0959024248       12.6411088309
  H        32.5252813853       14.1523257196        0.2689980684
  H        29.8964617524       12.5344677431       11.9096066513
  H        28.8655749484       10.6379668869       10.6543405925
  H        25.2090451458       11.1789477751       12.8544339784
  H        26.2627307111       13.0592949871       14.1224598868
  H        27.1762596875       11.6869896678        9.2315429031
  H        33.3022535133       14.2024457203       14.4355505294
  H        33.4030249897       14.3590160556        1.6419819851
  H        32.1777858648       18.5489857741       13.2179638526
  H        30.2335547987       14.1913956699        0.0856671927
  H        16.1187258831        2.9631949308        4.1352269562
  H        14.9534990153        4.8202234980        5.3279808833
  H        17.3653935668        7.6859139976        3.2146333496
  H        18.5142301362        5.8183455255        2.0148200820
  H        16.7538209249        5.7397363745        6.7766412174
  H        44.8286023952       32.1401345799        3.9818347566
  H        45.9378006180       30.3411894865        5.3111759807
  H        43.6821166102       27.3781259167        3.1577174533
  H        42.5994812139       29.1899568552        1.8151503385
  H        44.2307907416       29.4369815237        6.7739430264
  H        14.8504741515        8.5458211751        3.3684161964
  H        44.8999885841       32.2340055459       11.9267535418
  H        46.0248288760       30.4129683935       10.6472727169
  H        43.7634281393       27.4840234787       12.8401960454
  H        42.6456926634       29.3176067868       14.1192902676
  H        44.2688989421       29.4707715273        9.2129713344
  H        35.0809260198       26.6168689031       12.6287233367
  H        36.6050595207       35.1339575558        0.1858006614
  H        16.1439664888        3.0128939058       11.8985557294
  H        14.9743968689        4.8562206286       10.6827732082
  H        17.3950278267        7.7472832687       12.7509235858
  H        18.5421367620        5.8933196818       13.9785978818
  H        16.7649355331        5.7557191801        9.2141859580
  H        36.2783929387       34.4825968819       14.2679931334
  H        36.3807500297       34.2092381339        1.5049966923
  H        40.5804548690       33.2024038062       13.1486129772
  H        17.4707405009        1.9471573627       15.9690527092
  H        28.7327356295       18.8787142405        4.3645313243
  H        28.8186762321       18.5134799386       11.9577447742
  H        31.9019970680       15.8349467241       11.5489037990
  H        30.9693844592       15.4509679530        4.3873659929
  H        28.4492866887       17.1061133358        7.2316017811
  H        29.6571964129       15.0609784117        6.9172516989
  H        30.4883420637       20.0917968639       10.2621292051
  H        32.8227319032       17.6519717939        9.3207260795
  H        18.8533621218        0.8689941093        4.3402758360
  H        40.5279170661       35.2290986690       11.9469853099
  H        42.3240590148       34.4189798538       11.5854797825
  H        22.0878944823        0.6916317045        4.3569468782
  H        11.5970654430       18.7129534179        4.3872813116
  H        52.2648318267       18.4310728843       11.6723804593
  H        49.2558503700       16.4768125441       11.5790858543
  H        10.1499054501       15.7981147335        4.2982316423
  H        50.8498569280       17.6921984027       11.9493295943
  H        10.0458304748       17.3943937868        4.0571743835
  H        20.2146260032        0.0021498340        4.0471306349
  H        39.1835808943       36.1244736769       11.6814279277
 Ni        30.9877466667       17.8867521954       10.9892809206
 Ni        31.2444706180       16.3699407367        8.1645232804
 Ni        30.0976123617       18.7517825322        8.1590345316
 Ni        30.1862740007       17.3280188399        5.5731088656
  O        10.6497834628       14.3651188156       13.4806981412
  O        12.6131207986       14.6575035197       14.5787351969
  O        49.1478913748       16.8460500365       15.9846090498
  O        50.3501930328       20.9359954125       13.6430905628
  O        48.3485166875       20.5933401046       14.6608477283
  O        11.0512083102       17.0539966837       14.4953932153
  O        50.3209364584       20.8817067534        2.4118958055
  O        48.3467300919       20.5867259576        1.3321542702
  O        49.5436055084       18.2484855273        2.0733606879
  O        12.3587751145       18.6245098888        0.0047808041
  O        48.6931731797       14.1487108591       14.7461232190
  O         8.2098917095       14.2103426596        1.3275936046
  O        10.7353621586       14.5067207719        2.6694371039
  O        12.5718188576       14.5828391057        1.3335942802
  O        22.8448033013        2.0436831277       13.4818979137
  O        21.6056774329        3.5925278855       14.5844591739
  O        42.0581723764       34.1373369881       15.9738756990
  O        37.9818739025       33.1378392335       13.5674377732
  O        39.2183451145       31.5763349098       14.6618535010
  O        20.3084358468        1.0395893142       14.4968752041
  O        38.0246088995       33.1856932090        2.4203218231
  O        39.2189864693       31.5836557273        1.3316625688
  O        40.6522944084       33.7693130280        2.0653741737
  O        18.2554787738        1.3760622593        0.0019053429
  O        44.6221878107       35.1005683243       14.7536064773
  O        24.2053606416        0.0000399759        1.3259143446
  O        22.7529631717        2.0577861153        2.5890138844
  O        21.6243997255        3.5960751025        1.3476370774
  O        27.4878643834       18.7482473954       13.4928324995
  O        26.7632278480       16.9312786989       14.6531822456
  O        30.6690757898       19.4062086081        0.0886249545
  O        33.5456292560       16.3368532855       13.5868014259
  O        34.2743122383       18.1681685046       14.7285653431
  O        29.5756959488       17.0645816368       14.5753419912
  O        33.5550182598       16.3434279356        2.4242830497
  O        34.3005920823       18.2406954114        1.4132036773
  O        31.6512255270       18.3144633718        2.1770191438
  O        30.3251433942       15.1583536055        0.0960973001
  O        28.5519649966       21.0371003730       14.9013497055
  O        28.5162960857       20.9536953536        1.4204524032
  O        27.4603224688       18.6762973292        2.6691489315
  O        26.6947459720       16.9304579859        1.4187820754
  O        13.1488804174       18.6930166713        2.5926065552
  O        13.9193225345       16.9160940010        1.4099543049
  O        50.5956272770       19.3501592752        0.0254348961
  O        47.6837228806       16.3268581556        2.4220815969
  O        46.9515998793       18.1756482141        1.3297859694
  O        11.0694521617       17.0156512207        1.4948887456
  O        47.6746604743       16.3361045921       13.6472118134
  O        46.9261772124       18.2358779642       14.6586747637
  O        49.5682433227       18.3177157541       13.9770077782
  O        10.3184324880       15.1002574031        0.0021510442
  O        52.6707103838       21.0278895394        1.2469465083
  O        12.1468235235       20.8910903387       14.6680483393
  O        13.1089096108       18.6134695404       13.3202655281
  O        13.9571317771       16.9866841180       14.6604657470
  O        29.9909697780       14.4402656488        2.7370734388
  O        28.0894098403       14.6542083081        1.4996770125
  O        32.1374545166       16.8571885271        0.0882342185
  O        30.9634801311       20.9444614428        2.4228967368
  O        32.9447962704       20.6035097422        1.3484261248
  O        29.5696145302       17.0794971571        1.5842647622
  O        30.8752569894       20.9450832729       13.6576843797
  O        32.8796845502       20.5856044393       14.6636213054
  O        31.6771953626       18.2693246623       14.0019077497
  O        28.2932247315       18.6786077893        0.0877136873
  O        32.4891263515       14.2128707981        1.3368340991
  O        32.4076210122       14.2201302644       14.8150267417
  O        29.9186502887       14.4379885288       13.4892002336
  O        28.0387461098       14.5889816772       14.7516385730
  O        17.8892280147        1.9666186036        2.6679502549
  O        18.9562303032        3.5271291599        1.4130654096
  O        39.1687197697       34.1388220264        0.0023317805
  O        43.2802078006       33.0589576960        2.3367831008
  O        42.0345020192       31.5064855484        1.2467332556
  O        20.3177040959        1.0367320736        1.4853331771
  O        43.2760003908       33.1825491562       13.5697909635
  O        42.0052873023       31.5841200100       14.5779380995
  O        40.5790618659       33.7749809055       13.9308093875
  O        22.3672946273        1.3845658560        0.0029766441
  O        36.6727624076       35.0997649444        1.2384177421
  O        16.4455587735        0.0642635045       14.6631721814
  O        17.9364585836        2.0433764743       13.3212754084
  O        18.9190264343        3.5931279841       14.6608309152
  O        29.6927257360       18.8982692478       12.1606024935
  O        29.6919656433       18.9032105167        4.1726171803
  O        31.2595373739       16.3396450990       12.0844590699
  O        31.2559348830       16.3370146246        4.0876327343
  O        32.2599458423       16.9275471191        9.6506691709
  O        30.4188834559       15.6093431815        6.6674298071
  O        31.5163527196       17.9511759540        6.9901315962
  O        31.0094847346       19.4046308350        9.8085261245
  O        28.7292531258       17.9484467554        6.8298647343
  O        39.4567775227       35.2438281634       11.9968543858
  O        19.1412922580        0.0044915053        3.9956711342
  O        41.9695865209       35.1728067079       12.0821367890
  O        21.6912034815       -0.0694388707        3.9009972936
  O        51.3650524246       18.6142787207       12.0004513254
  O        10.7511760833       18.7472777757        3.9099669608
  O        50.0802116997       16.4129102779       12.0865919719
  O         9.5243449627       16.4830487767        3.9963647244
 Zr         9.2952165899       16.0528942230       14.1771903176
 Zr        49.8351711191       16.0067264378        1.7517492484
 Zr        22.0732641664        0.0294655399       14.1839895118
 Zr        42.4609773441       35.1530188469        1.8060253709
 Zr        29.6031714661       19.1211416839       14.2992114982
 Zr        29.5905450886       19.1719162368        1.9031015095
 Zr        11.0368513779       19.0520940545        1.8325563755
 Zr        11.0427875210       19.1548903977       14.2463468960
 Zr        31.3506589591       16.1038239775        1.9015594649
 Zr        31.3933864660       16.0237907028       14.2950433243
 Zr        18.6011002441       -0.0016487608        1.7684881971
 Zr        18.5064322429       -0.0079679558       14.2086670439
 Zr        12.3004304981       16.3235675615       15.9851301291
 Zr        48.6145247042       18.8326765171        0.0152254700
 Zr        20.3149793044        2.4729951675       15.9853644036
 Zr        40.6435415770       32.6866761805       15.9732374901
 Zr        28.3550703731       16.3447391036        0.0841042288
 Zr        32.6325303377       18.8407397480        0.0603710760
  H        32.3206608762       18.4592986493        6.7938858572
  O        28.5934752924       15.6879987782       10.9070238892
  H        29.4109918177       15.6418090834       11.4464114358
  H        28.0048275323       15.0336127530       11.3154360715
  O        33.4178904503       15.0976840859        5.6622086746
  H        32.7373711653       14.7969423773        6.2885258399
  H        32.9065119870       15.6902543124        5.0692925298
  O        28.1297353132       19.5682662792        8.7563675884
  H        27.8681622232       19.0340562554        7.9569822954
  H        27.7407326834       19.1147540052        9.5245241343
  O        30.2442224511       20.4415017836        6.5036031665
  H        30.0725424536       19.9950435227        5.6247838722
  H        29.5510612452       21.1158102811        6.5855229793
  H        30.7262283540       15.3282434640        9.0127769085
