     580
 i =      169, E =     -4813.3399355438
  C        11.8584291896       14.0534974462       13.7365073825
  C        12.4558587593       12.8903254683       13.0183611254
  C        11.7042434961       12.1717133446       12.0764090467
  C        12.2805614178       11.1094917859       11.3840059464
  C        13.6210048104       10.7393770954       11.6119766861
  C        14.3540312915       11.4425480490       12.5858502046
  C        13.7811911039       12.5075099521       13.2774254762
  C        14.2606341447        9.6488079840       10.8385234717
  C        14.2560084561        9.6567336981        9.4168134689
  C        13.7425737747       10.7587111338        8.6628781927
  C        49.1264782428       21.2333434096       13.8746326135
  C        48.5496391639       22.4011779271       13.1474773426
  C        49.2998035568       23.0688114395       12.1667961062
  C        48.7328418513       24.1079100139       11.4335820882
  C        47.4021381965       24.5091460667       11.6619014429
  C        46.6709656049       23.8598617360       12.6749684478
  C        47.2334397865       22.8149615286       13.4043178012
  C        46.7719952922       25.5869162351       10.8646579985
  C        46.7610624324       25.5573374178        9.4429051107
  C        47.2608201957       24.4421354331        8.6994603734
  C        14.8601520244        8.5705137646        8.7035317485
  C        14.8915817964        8.5969288490       11.5151421443
  C        49.1128761994       21.2033523735        2.1504734291
  C        48.5274102584       22.3645380903        2.8778433220
  C        49.2668125488       23.0256799668        3.8703424431
  C        48.6904422804       24.0602223744        4.6017819777
  C        47.3598385707       24.4565349409        4.3638917424
  C        46.6391602969       23.8110885858        3.3409231880
  C        47.2127418244       22.7751539114        2.6091940410
  C        46.7214982022       25.5316357968        5.1548319484
  C        46.7332712148       25.5280849652        6.5765238219
  C        47.2485486778       24.4288028325        7.3329100960
  C        40.6235762311       17.1169039778        7.3113310566
  C        40.6395245878       17.1334509540        4.5015946372
  C        11.8827428097       14.0864616515        2.2904592653
  C        12.4719355906       12.9103939722        2.9945278970
  C        11.7144596545       12.1775480021        3.9209391168
  C        12.2809250532       11.0950513769        4.5894259321
  C        13.6196031915       10.7209622580        4.3573822036
  C        14.3574559279       11.4360433545        3.3961076107
  C        13.7921253056       12.5172187328        2.7233440489
  C        14.2532824919        9.6243164350        5.1278848250
  C        14.2520977711        9.6443381461        6.5497378076
  C        13.7420035214       10.7531737294        7.2968306863
  C        22.5126498491        3.2462260824       13.7477172556
  C        23.2265526665        4.3539033606       13.0493644080
  C        24.2273416750        4.0782982809       12.1057118782
  C        24.8532250838        5.1204440407       11.4259492454
  C        24.4945485464        6.4616284472       11.6685107932
  C        23.5218843357        6.7288115536       12.6493494217
  C        22.8916521145        5.6885008719       13.3277620572
  C        25.0992402783        7.5700791063       10.8931496094
  C        25.0774456007        7.5594063923        9.4712512112
  C        24.3780921577        6.5578597734        8.7255041429
  C        38.3022585667       31.9306873878       13.8446298897
  C        37.5706816137       30.8420152958       13.1358748542
  C        36.6090420068       31.1475000092       12.1607300842
  C        35.9895683752       30.1282826811       11.4430436509
  C        36.3174469693       28.7789355236       11.6790819038
  C        37.2495396621       28.4807892833       12.6907256538
  C        37.8729307507       29.4987853091       13.4074229979
  C        35.7131080101       27.6885183560       10.8819142464
  C        35.7425095425       27.7043313284        9.4606012191
  C        36.4486163562       28.7066242620        8.7235328812
  C        25.7029979901        8.6273973536        8.7502189535
  C        25.6905624926        8.6492549633       11.5628737959
  C        38.3290205300       31.9623078869        2.1616074609
  C        37.6073406146       30.8894231908        2.9044540773
  C        36.6763191622       31.1991981642        3.9076343719
  C        36.0650234947       30.1815584538        4.6374089221
  C        36.3706452496       28.8287164031        4.3876281487
  C        37.2800266464       28.5288061985        3.3549080689
  C        37.8932552807       29.5430225436        2.6262708370
  C        35.7605645895       27.7306276168        5.1717758686
  C        35.7669801472       27.7255986873        6.5938526392
  C        36.4598651761       28.7171082763        7.3570385607
  C        46.1354780917       26.6208632240        7.2866127841
  C        46.0876198785       26.5799873159        4.4787237013
  C        22.4624129916        3.2570325452        2.2643751392
  C        23.1584481130        4.3652699700        2.9880300461
  C        24.1596761557        4.0781198890        3.9297807311
  C        24.7898283252        5.1070832159        4.6262029479
  C        24.4399214883        6.4542574572        4.4040963277
  C        23.4616026297        6.7345270162        3.4310138162
  C        22.8266932104        5.7058422828        2.7352072616
  C        25.0732186171        7.5523479423        5.1781079718
  C        25.0652244290        7.5490838350        6.6013071912
  C        24.3699898187        6.5541979590        7.3588135105
  C        26.5882594096       17.8705224058       13.7829426994
  C        25.2875228585       17.9400347870       13.0517023630
  C        25.0351059164       18.9503277744       12.1100797291
  C        23.8253699969       18.9808974694       11.4181603842
  C        22.8332018220       18.0064817266       11.6495647219
  C        23.0813252404       17.0206654895       12.6228266181
  C        24.2923166692       16.9835692580       13.3102549391
  C        21.5634225413       17.9961307713       10.8822045827
  C        21.5675784186       17.9759298122        9.4604002598
  C        22.7758840921       17.8589426948        8.7031998049
  C        34.4234963152       17.2219644287       13.8799602347
  C        35.7195695267       17.1616576407       13.1469488844
  C        35.9160397502       16.2048621122       12.1387652859
  C        37.1012944264       16.1842821636       11.4098933132
  C        38.1209515492       17.1221186949       11.6649864176
  C        37.9274589622       18.0574230904       12.6999798815
  C        36.7412796240       18.0811571748       13.4294945593
  C        39.3744736082       17.1312393647       10.8776349558
  C        39.3679761391       17.1403980039        9.4550710262
  C        38.1600983220       17.2499479617        8.6961693052
  C        20.3221196113       17.9840010609        8.7505017705
  C        20.3384665875       17.9886044726       11.5634422547
  C        34.4519043663       17.2348047333        2.1842026085
  C        35.7569893432       17.1333598103        2.8978437330
  C        35.9775490933       16.1395301817        3.8636673429
  C        37.1652101670       16.1237590327        4.5914441519
  C        38.1619909570       17.0921360271        4.3690607228
  C        37.9514417374       18.0557957285        3.3643282834
  C        36.7615260514       18.0819781137        2.6436865476
  C        39.4086537018       17.1153477182        5.1665648394
  C        39.3859414190       17.1290202856        6.5879717796
  C        38.1677838836       17.2392099949        7.3295460974
  C        35.1341060849       26.6476988622        7.2979097333
  C        35.1721071841       26.6590632312        4.4888189470
  C        26.5699108970       17.8269189376        2.3319492902
  C        25.2559575699       17.8795445498        3.0354622044
  C        24.9833262647       18.9052642231        3.9531079847
  C        23.7646844755       18.9385113858        4.6243726774
  C        22.7899886068       17.9459881808        4.4008128185
  C        23.0562360958       16.9445989790        3.4496282613
  C        24.2755973423       16.9094027766        2.7762976187
  C        21.5256821094       17.9362295680        5.1721999473
  C        21.5480069811       17.9431654920        6.5933403415
  C        22.7665658860       17.8425422009        7.3371771834
  C        14.0455700723       17.8307779947        2.2908742420
  C        15.3512648192       17.8934016859        3.0121407496
  C        15.6081248165       18.9049099564        3.9504403135
  C        16.8178211836       18.9317666930        4.6410742082
  C        17.8030839579       17.9497952324        4.4146272518
  C        17.5513926866       16.9625740578        3.4435576138
  C        16.3410717975       16.9314612065        2.7542794138
  C        19.0708442508       17.9391922839        5.1838911807
  C        19.0667778460       17.9460422457        6.6060217876
  C        17.8584865508       17.8461724793        7.3652474799
  C        46.8041372814       17.2176479671        2.1626977986
  C        45.5130438608       17.1537228147        2.9045756879
  C        45.3085775462       16.1793386518        3.8937930270
  C        44.1253189156       16.1603407278        4.6270196239
  C        43.1167903522       17.1154470739        4.3927780354
  C        43.3180514355       18.0681882895        3.3758181747
  C        44.5021919163       18.0915563589        2.6438360951
  C        41.8635271672       17.1262790966        5.1803972555
  C        41.8698927158       17.1328127111        6.6021601954
  C        43.0786730848       17.2378274043        7.3597252082
  C        20.3119953959       17.9676552826        7.3161261042
  C        20.2954666459       17.9153641506        4.5034250110
  C        46.7841440835       17.2331628833       13.8805190437
  C        45.4827811037       17.1323238847       13.1603220832
  C        45.2655528672       16.1409158634       12.1911099982
  C        44.0782037035       16.1183477919       11.4632375033
  C        43.0769663089       17.0839178444       11.6864079119
  C        43.2852658940       18.0455060054       12.6930602328
  C        44.4737347689       18.0747392224       13.4160482656
  C        41.8296181511       17.1075999043       10.8901203819
  C        41.8525260510       17.1226352782        9.4688271953
  C        43.0705624762       17.2299557285        8.7264482895
  C        46.1532350251       26.6373143681        8.7211549227
  C        46.1621563021       26.6560685547       11.5307961147
  C        14.0433803830       17.8329517535       13.7033143208
  C        15.3620179989       17.9137810405       13.0090623397
  C        15.6259779809       18.9360217852       12.0852185115
  C        16.8516934128       18.9838784457       11.4253555540
  C        17.8405691962       18.0089264391       11.6646184365
  C        17.5829492458       17.0142449222       12.6254343499
  C        16.3589262551       16.9658205581       13.2887320976
  C        19.1073043596       17.9979312940       10.8950500772
  C        19.0857955031       17.9761004031        9.4735923333
  C        17.8677514611       17.8595192627        8.7313388480
  C        28.8060152943       14.0828438289        2.3622964836
  C        28.2004956626       12.9117412876        3.0600624903
  C        28.9319610467       12.1687729451        3.9991846201
  C        28.3346150171       11.0992083932        4.6628320209
  C        26.9939753078       10.7449483391        4.4079423464
  C        26.2851098121       11.4673369663        3.4310485998
  C        26.8781928089       12.5393436261        2.7690378510
  C        26.3277903696        9.6649375092        5.1733776223
  C        26.3159315909        9.6928440523        6.5946356648
  C        26.8218308671       10.8053980450        7.3391436385
  C        32.1813782177       21.2420798167        2.1511194829
  C        32.7737525785       22.4081823836        2.8690231917
  C        32.0246169207       23.0854937477        3.8434687620
  C        32.5934342724       24.1250671195        4.5720726462
  C        33.9277991880       24.5152482603        4.3475791921
  C        34.6598869306       23.8562932800        3.3418254618
  C        34.0932865206       22.8112530169        2.6147922777
  C        34.5547126027       25.5908639531        5.1486019782
  C        34.5419137788       25.5638330681        6.5703074000
  C        34.0286012871       24.4508419992        7.3088330107
  C        25.7026208673        8.6176332993        7.3149963591
  C        25.6897081277        8.6138313193        4.5012442070
  C        32.1025329300       21.2299444625       13.8779677691
  C        32.6896767845       22.3834341610       13.1362720042
  C        31.9495668132       23.0485799344       12.1465335565
  C        32.5277552560       24.0787702464       11.4088498132
  C        33.8592358654       24.4739958748       11.6437832280
  C        34.5818735598       23.8229933144       12.6618708911
  C        34.0087876198       22.7868865442       13.3943053107
  C        34.4977330475       25.5554605379       10.8587511742
  C        34.5113553573       25.5467859009        9.4368948254
  C        34.0125270647       24.4432843098        8.6755029503
  C        40.6143892634       17.1170263317        8.7460094931
  C        40.5990543500       17.1302639293       11.5559851031
  C        28.7266610428       14.1008909097       13.8109786775
  C        28.1122549464       12.9530468861       13.0782226048
  C        28.8507332706       12.2538857983       12.1106043505
  C        28.2735078147       11.1947808032       11.4143555051
  C        26.9405226684       10.8066093974       11.6583184446
  C        26.2186772373       11.4936474414       12.6528788901
  C        26.7945199875       12.5537987922       13.3517136247
  C        26.3040720991        9.7115490929       10.8853228185
  C        26.3035479330        9.7176884006        9.4626130442
  C        26.8123746377       10.8194227480        8.7051618238
  C        18.1355094557        3.1810835903        2.3222708869
  C        17.4061857336        4.2782897033        3.0208671476
  C        16.3904843399        3.9998716545        3.9483915020
  C        15.7427114833        5.0398038597        4.6119036489
  C        16.0945353467        6.3835435350        4.3722041401
  C        17.0838796239        6.6531172421        3.4084158642
  C        17.7330546380        5.6158273652        2.7433626746
  C        15.4701167917        7.4911919232        5.1352383931
  C        15.4854887283        7.4905586312        6.5569489763
  C        16.1872937872        6.4971141222        7.3101126947
  C        42.9460189033       31.8595611543        2.0779807074
  C        43.6464318652       30.7719189483        2.8218079238
  C        44.5919540298       31.0932263854        3.8079073141
  C        45.1976180856       30.0876615608        4.5555704391
  C        44.8711760164       28.7345880168        4.3407245508
  C        43.9454208914       28.4202660346        3.3274288014
  C        43.3366710687       29.4254159255        2.5793596890
  C        45.4886618550       27.6552821956        5.1439617356
  C        45.4929345821       27.6810553548        6.5656507061
  C        44.8060718592       28.6892687688        7.3122574880
  C        14.8563715803        8.5629742030        7.2693001179
  C        14.8745932476        8.5628072111        4.4566317672
  C        42.9465340783       31.9616496432       13.8038788738
  C        43.6917864909       30.8855694114       13.0904920680
  C        44.6562759649       31.1915104903       12.1180814128
  C        45.2777803025       30.1719340207       11.4003429834
  C        44.9541197721       28.8215852807       11.6380380077
  C        44.0208134728       28.5238997958       12.6489927048
  C        43.3925878938       29.5406436088       13.3612171731
  C        45.5630633363       27.7241887408       10.8527420067
  C        45.5334626661       27.7175894520        9.4314388996
  C        44.8273366765       28.7079303559        8.6784425331
  C        35.1200782493       26.6379449295        8.7326309735
  C        35.1098576100       26.6125993406       11.5424819777
  C        18.1487276385        3.2471035645       13.7015951679
  C        17.4301372649        4.3439253344       12.9922921213
  C        16.4149416094        4.0526446616       12.0687053706
  C        15.7666313499        5.0832497624       11.3932792579
  C        16.1212744847        6.4284965542       11.6159712923
  C        17.1126591893        6.7118883116       12.5732213800
  C        17.7603465648        5.6830017977       13.2530185290
  C        15.4906573131        7.5241457649       10.8435439965
  C        15.4965982305        7.5075366235        9.4224099457
  C        16.1935525904        6.5059624023        8.6757193878
  H        10.6721975001       12.4660604927       11.8992177087
  H        11.6942382047       10.5512362672       10.6573180002
  H        15.3909115812       11.1675765014       12.7678771225
  H        14.3504814237       13.0703913231       14.0132557849
  H        13.3752131684       11.6306963994        9.1961733098
  H        50.3226299393       22.7490096145       11.9823270095
  H        49.3193637928       24.6234394036       10.6762166597
  H        45.6412706943       24.1601849253       12.8577311632
  H        46.6622189768       22.2892756506       14.1659557007
  H        47.6290837567       23.5756674763        9.2411889894
  H        14.8718193681        8.5881059959       12.6034457401
  H        50.2870222845       22.7031648978        4.0649252053
  H        49.2688968198       24.5760197560        5.3650045617
  H        45.6095231204       24.1077946442        3.1523052333
  H        46.6516733890       22.2524656782        1.8381635949
  H        47.6070530969       23.5515701708        6.8020113429
  H        40.6452166395       17.0980396534        3.4138541923
  H        48.6866598703       14.0949049128       15.7948637992
  H        10.6810755357       12.4668562167        4.0985020795
  H        11.6890744263       10.5248952096        5.3022717572
  H        15.3927168528       11.1577275162        3.2098574216
  H        14.3642940467       13.0861787343        1.9943615570
  H        13.3748063481       11.6216266760        6.7581840577
  H        47.9301371442       14.2174127816        1.7160144173
  H        47.7795966599       14.3718002371       14.4894899783
  H        49.0822592950       18.5517937289        2.8720601936
  H        10.4153061108       14.1343039710        0.0037602532
  H        24.4929611415        3.0408603990       11.9148565075
  H        25.6294219449        4.9051654358       10.6947651953
  H        23.2365319926        7.7605543437       12.8441056651
  H        22.1188405628        5.8867507197       14.0664244710
  H        23.8156503042        5.8022560730        9.2661858917
  H        36.3722491108       32.1910853277       11.9674436641
  H        35.2434550610       30.3681492236       10.6886894070
  H        37.5100598483       27.4413804421       12.8794060106
  H        38.6183416137       29.2771648100       14.1675057348
  H        37.0136889007       29.4563191431        9.2697008432
  H        25.7203943745        8.6358990802       12.6509286422
  H        36.4524552529       32.2436349504        4.1127015685
  H        35.3374004225       30.4273975125        5.4077079799
  H        37.5284191115       27.4884329778        3.1557032272
  H        38.6176323966       29.3165159757        1.8477151753
  H        37.0345319254       29.4744736285        6.8316923686
  H        46.1089269689       26.5872177546        3.3906861959
  H        44.6684210275       35.1162316217       15.8087596458
  H        24.4354314242        3.0394807915        4.0978097934
  H        25.5697221711        4.8756999290        5.3485917977
  H        23.1788425577        7.7694738153        3.2494576979
  H        22.0559961545        5.9212196559        1.9986485606
  H        23.8005501231        5.7965875297        6.8282554145
  H        44.9543813238       34.3908916485        1.7005485481
  H        44.9019366873       34.2070146660       14.4852882438
  H        40.6664240825       33.2093352518        2.8583041292
  H        23.1507383531        1.9582068361        0.0104911484
  H        25.7941505830       19.7114169640       11.9411253423
  H        23.6325530662       19.7697324907       10.6940867294
  H        22.3257812427       16.2600430715       12.8087083883
  H        24.4967969774       16.2083681220       14.0448743836
  H        23.7160124254       17.7480633384        9.2355696851
  H        35.1233776369       15.4903969090       11.9308763454
  H        37.2507790185       15.4335707238       10.6370618975
  H        38.7065222879       18.7894721459       12.9024796147
  H        36.5768773279       18.8179001999       14.2123962045
  H        37.2189748505       17.3689138436        9.2250315816
  H        20.3435893166       18.0250045120       12.6514029253
  H        35.2091211893       15.3975416432        4.0652490502
  H        37.3250919637       15.3551682415        5.3444727348
  H        38.7153375028       18.8097071986        3.1858703305
  H        36.5762371512       18.8462206888        1.8929006883
  H        37.2325610173       17.3433841015        6.7866206705
  H        35.1476799688       26.6832828414        3.4010032010
  H        28.4823636649       21.1259102138       15.8797026640
  H        25.7378044591       19.6702353142        4.1206245514
  H        23.5519088305       19.7374089629        5.3314608777
  H        22.3109390984       16.1719634048        3.2721993778
  H        24.4977380105       16.1252938141        2.0563475972
  H        23.6996965460       17.7197927354        6.7953006606
  H        28.9901171854       21.7279749244        1.7643015442
  H        29.1546292729       21.7794401098       14.5592533032
  H        32.1573422901       18.5753637920        2.9478293764
  H        27.4054196616       19.0882488699        0.0938160079
  H        14.8489928973       19.6644928828        4.1231219943
  H        17.0146165591       19.7214960066        5.3629544302
  H        18.3026763887       16.1969435269        3.2610141699
  H        16.1332597247       16.1566122853        2.0201891005
  H        16.9175756096       17.7250934307        6.8363886849
  H        46.0938857758       15.4508408173        4.0812302790
  H        43.9670321660       15.3977304114        5.3863832604
  H        42.5467723438       18.8128276880        3.1902446484
  H        44.6743008193       18.8418860944        1.8757483953
  H        44.0193114425       17.3559792148        6.8294558032
  H        20.2908435765       17.9338830737        3.4150530778
  H        46.0424609763       15.4015330416       12.0102387508
  H        43.9132889225       15.3482251590       10.7128318347
  H        42.5182661944       18.7959438053       12.8728984694
  H        44.6541705461       18.8364737300       14.1705513616
  H        44.0050343824       17.3407240967        9.2688962539
  H        46.1989187504       26.6825069062       12.6182460559
  H        52.7407575953       21.0624528218        0.1996553597
  H        14.8604503890       19.6866406133       11.9016047787
  H        17.0560479502       19.7796885404       10.7122946981
  H        18.3383810746       16.2548187870       12.8164919447
  H        16.1442297797       16.1857537229       14.0151899570
  H        16.9339016309       17.7483884784        9.2742404660
  H        52.3213593885       21.6730687940       14.2898142573
  H        52.0124795337       21.7015545289        1.5005963504
  H        49.0663999293       18.6074104857       13.1989902917
  H        13.2466930112       19.0170696604       15.9715973485
  H        29.9679381281       12.4393763390        4.1929053529
  H        28.9037668431       10.5231241087        5.3893534351
  H        25.2496328550       11.2035472559        3.2258219678
  H        26.3275217967       13.1180335799        2.0314522837
  H        27.1907703483       11.6709239924        6.7970690076
  H        31.0000854765       22.7706389762        4.0246470752
  H        32.0080178069       24.6496064607        5.3239364769
  H        35.6928977366       24.1479784106        3.1636476683
  H        34.6644483145       22.2768464360        1.8591020559
  H        33.6711387814       23.5815425893        6.7641823268
  H        25.7186291605        8.5941044862        3.4131989077
  H        30.9236540433       22.7376075806       11.9628588608
  H        31.9484028158       24.5953786974       10.6467513545
  H        35.6126822980       24.1173290295       12.8479832294
  H        34.5723281997       22.2610538644       14.1614919642
  H        33.6436751479       23.5679425501        9.2028580232
  H        40.5930308598       17.0917288968       12.6436471115
  H        32.5271167340       14.1468783942        0.2547816037
  H        29.8782564430       12.5555378608       11.9211954746
  H        28.8559740557       10.6499459780       10.6745285888
  H        25.1873468431       11.2078571752       12.8495200994
  H        26.2321264801       13.0980957307       14.1067883281
  H        27.1730326297       11.6960797017        9.2354235818
  H        33.3006850335       14.2166348103       14.4328885405
  H        33.4055257215       14.3604179785        1.6329118388
  H        32.1293418669       18.5457708395       13.1788000738
  H        30.2331244373       14.1926080327        0.0636388823
  H        16.1184889048        2.9633513143        4.1347810811
  H        14.9532583450        4.8204017406        5.3275521061
  H        17.3662085758        7.6860142235        3.2152781238
  H        18.5151130862        5.8185202614        2.0155467172
  H        16.7539877801        5.7398791895        6.7766068218
  H        44.8282849987       32.1402922696        3.9821244200
  H        45.9374900887       30.3414076691        5.3115125766
  H        43.6827706546       27.3781918664        3.1572656334
  H        42.6001812484       29.1900467347        1.8145867379
  H        44.2308755324       29.4371545072        6.7739521443
  H        14.8506993913        8.5459422112        3.3684147127
  H        44.8997857098       32.2341868871       11.9265650589
  H        46.0246312934       30.4131891091       10.6470580673
  H        43.7640278096       27.4841481132       12.8406851821
  H        42.6463097378       29.3177783873       14.1198548116
  H        44.2689876697       29.4709636825        9.2129833063
  H        35.0699967441       26.6237219459       12.6300528484
  H        36.6052972867       35.1342030016        0.1856731591
  H        16.1438687057        3.0130610929       11.8990130768
  H        14.9743054885        4.8563995858       10.6831966501
  H        17.3961657733        7.7473594597       12.7500796291
  H        18.5432635838        5.8934776304       13.9777313520
  H        16.7651565703        5.7558531713        9.2141620632
  H        36.2791010649       34.4824042115       14.2681189642
  H        36.3815483223       34.2089388915        1.5045091430
  H        40.5809920546       33.2032908411       13.1484392675
  H        17.4711455191        1.9476862474       15.9691790255
  H        28.7796941427       18.9573766056        4.3273749650
  H        28.8451411756       18.5140127320       11.8710266779
  H        31.8508685128       15.7537130364       11.5723262670
  H        31.1177080908       15.3907983425        4.3748936218
  H        28.5991114432       17.1719317209        6.8960054669
  H        29.8294514365       14.9384384707        6.6642425515
  H        30.4597995999       19.9627631650       10.0832700360
  H        32.9906843077       17.4020525875        9.1208481374
  H        18.8536215915        0.8690727185        4.3403757093
  H        40.5279226139       35.2288312109       11.9467911422
  H        42.3253176257       34.4198480935       11.5849306466
  H        22.0878263082        0.6918699178        4.3569115411
  H        11.5969149490       18.7129616506        4.3873747713
  H        52.2644036432       18.4305017988       11.6725180584
  H        49.2549359886       16.4764816749       11.5793141771
  H        10.1502027818       15.7981607304        4.2980371078
  H        50.8491942525       17.6923816045       11.9491526366
  H        10.0459977090       17.3944708870        4.0571396114
  H        20.2149640613        0.0022640384        4.0470685334
  H        39.1838630043       36.1245028080       11.6813099244
 Ni        30.9817416490       17.7465661401       10.7434322823
 Ni        30.9024307085       16.5200030916        8.2470797575
 Ni        30.1403066599       18.8690988480        7.8242790708
 Ni        30.2691461921       17.3760301220        5.1697925268
  O        10.6498428937       14.3651610263       13.4806873388
  O        12.6131560942       14.6575334165       14.5787289746
  O        49.1479249661       16.8460094275       15.9846051873
  O        50.3501052430       20.9362544336       13.6431140354
  O        48.3484769807       20.5933539579       14.6608469745
  O        11.0509446321       17.0539802147       14.4954706165
  O        50.3208564166       20.8817335054        2.4119144162
  O        48.3466892934       20.5867538365        1.3321601243
  O        49.5435166306       18.2484675676        2.0734010889
  O        12.3586906018       18.6244110485        0.0047164348
  O        48.6931670972       14.1486704299       14.7461450957
  O         8.2098678083       14.2103301874        1.3276164912
  O        10.7353581743       14.5067284336        2.6694815294
  O        12.5717742395       14.5828264571        1.3335554134
  O        22.8450007977        2.0448050894       13.4816843241
  O        21.6058279351        3.5928073951       14.5846416248
  O        42.0583434885       34.1376544414       15.9739022251
  O        37.9817459925       33.1389015791       13.5676402394
  O        39.2179754267       31.5763250849       14.6614552115
  O        20.3086892468        1.0401250409       14.4971831127
  O        38.0247078558       33.1859428952        2.4202609250
  O        39.2190412168       31.5836284137        1.3317060945
  O        40.6523508550       33.7694673207        2.0653072810
  O        18.2556840643        1.3763158131        0.0019588818
  O        44.6221656493       35.1006315258       14.7536158301
  O        24.2054203967        0.0000716173        1.3258674087
  O        22.7534454522        2.0583602741        2.5895413134
  O        21.6253671869        3.5971818509        1.3497882493
  O        27.4896593444       18.7427035928       13.4867799727
  O        26.7017538240       16.9482981004       14.6569749173
  O        30.6648472492       19.4092812085        0.0658200400
  O        33.5450085447       16.3382823717       13.5889226821
  O        34.2722040450       18.1710084549       14.7273287224
  O        29.5719688489       17.0707632350       14.5733493345
  O        33.5625247389       16.3418576267        2.4184381979
  O        34.3002173285       18.2428044625        1.4107541082
  O        31.6496767275       18.3139539648        2.1634377680
  O        30.3217965662       15.1596677484        0.0815144393
  O        28.5157732823       21.0941540946       14.8290122273
  O        28.5132513741       20.9578393648        1.4115494564
  O        27.4617428788       18.6779046554        2.6676400997
  O        26.6926603781       16.9327890285        1.4198535498
  O        13.1476389959       18.6934768846        2.5918025249
  O        13.9189432908       16.9160709757        1.4096438561
  O        50.5955694478       19.3502325597        0.0255105183
  O        47.6835240441       16.3270481725        2.4222414358
  O        46.9518697272       18.1757671322        1.3295275044
  O        11.0693452737       17.0155788517        1.4947615717
  O        47.6745953669       16.3361019183       13.6473048190
  O        46.9262698745       18.2359448144       14.6587970184
  O        49.5681291734       18.3177186805       13.9769862529
  O        10.3184428747       15.1002104000        0.0021277582
  O        52.6706740134       21.0279180012        1.2469227471
  O        12.1467613133       20.8912167766       14.6681169526
  O        13.1059169878       18.6143842645       13.3207274208
  O        13.9572127937       16.9874953554       14.6591502372
  O        29.9970381572       14.4316057248        2.6679481473
  O        28.0765214599       14.6585512254        1.4860847525
  O        32.1380862048       16.8621719522        0.0655511571
  O        30.9661646660       20.9506688029        2.4173911910
  O        32.9464419338       20.6032377970        1.3450914335
  O        29.5656792944       17.0800732137        1.5801295432
  O        30.8717376135       20.9453670972       13.6555499616
  O        32.8780644467       20.5899354861       14.6617973807
  O        31.6533314297       18.3068515065       13.9905584049
  O        28.2885252829       18.6842888914        0.0751118298
  O        32.4921085919       14.2095803140        1.3283598473
  O        32.4048474961       14.2259287725       14.8100314600
  O        29.9115342183       14.4450352432       13.4910427655
  O        28.0109911692       14.6475060089       14.7309355856
  O        17.8893029681        1.9667060657        2.6679049545
  O        18.9563406665        3.5272189415        1.4130850527
  O        39.1687030088       34.1388616071        0.0023483506
  O        43.2802134161       33.0590236509        2.3368066821
  O        42.0345029059       31.5065040563        1.2467442048
  O        20.3179580703        1.0370254230        1.4851637578
  O        43.2760349891       33.1826517185       13.5698288524
  O        42.0052388333       31.5841599262       14.5778886853
  O        40.5792380053       33.7753493250       13.9310094462
  O        22.3675932712        1.3849742242        0.0030821850
  O        36.6728071251       35.0998172045        1.2383837002
  O        16.4456481149        0.0644467143       14.6632565333
  O        17.9365183031        2.0434720992       13.3213167609
  O        18.9191848851        3.5931568656       14.6609100828
  O        29.7433348588       18.8297812746       12.0793634403
  O        29.7268017461       18.9913574728        4.0772154796
  O        31.3101260024       16.3995309759       12.0661574121
  O        31.3135203669       16.2647898448        3.9833612048
  O        32.3487235653       16.7714857984        9.4948661952
  O        30.4585131206       15.6736195705        6.5780648510
  O        31.5516427339       18.0315029852        6.6522203657
  O        30.9268013821       19.2680256872        9.5816404228
  O        28.8394037233       18.0297060495        6.4991585271
  O        39.4567750719       35.2437997561       11.9968665372
  O        19.1414957113        0.0046055988        3.9956130696
  O        41.9695716271       35.1726669265       12.0821715649
  O        21.6912098982       -0.0693106103        3.9010159275
  O        51.3646225795       18.6142267509       12.0002363526
  O        10.7510550023       18.7473340323        3.9100193174
  O        50.0794163476       16.4128503511       12.0866463897
  O         9.5245145430       16.4830660742        3.9963395510
 Zr         9.2952157982       16.0527622374       14.1771535869
 Zr        49.8352613591       16.0066503059        1.7517753196
 Zr        22.0735634389        0.0305692213       14.1837743169
 Zr        42.4613332996       35.1538834890        1.8062558799
 Zr        29.5982949406       19.1122935372       14.2546186813
 Zr        29.5894536338       19.1922693175        1.8518367054
 Zr        11.0366683594       19.0520097025        1.8325236104
 Zr        11.0424744722       19.1549084378       14.2462091138
 Zr        31.3524012840       16.0924723401        1.8414431845
 Zr        31.3809654713       16.0323619967       14.2648785413
 Zr        18.6015252314       -0.0008966758        1.7683323405
 Zr        18.5069325782       -0.0069180507       14.2089048446
 Zr        12.3003237899       16.3233678842       15.9849231487
 Zr        48.6146895454       18.8326051519        0.0152203205
 Zr        20.3161962441        2.4743859399       15.9858202185
 Zr        40.6441478411       32.6875053792       15.9731630620
 Zr        28.3398627866       16.3529799339        0.0835546943
 Zr        32.6329861230       18.8453124889        0.0513604981
  H        32.2938649415       18.6295836017        6.4617806478
  O        33.4186423176       15.0960194805        5.6635473539
  H        32.6516494618       15.0777821141        6.2654952763
  H        33.1124094287       15.7223145895        4.9787080089
  O        28.0913437055       19.6353774673        8.5695346217
  H        27.8294875833       19.1067915225        7.7746188669
  H        27.8216890144       19.0978214762        9.3343303457
  O        30.2832132941       20.5231463647        6.4096195153
  H        30.1377577027       20.0861139208        5.5189004544
  H        29.5807954143       21.1896577644        6.4886429812
  H        29.7581018717       16.3111024235        9.3071725327
