     580
 i =      257, E =     -4813.3740197879
  C        11.8583472471       14.0535349673       13.7364957734
  C        12.4558126465       12.8904242171       13.0182658872
  C        11.7042322457       12.1718115874       12.0762906470
  C        12.2805619240       11.1095799692       11.3839061508
  C        13.6209775676       10.7394133043       11.6119529016
  C        14.3539612000       11.4425490306       12.5858902285
  C        13.7810943695       12.5075076822       13.2774391844
  C        14.2606166818        9.6488475421       10.8385084816
  C        14.2560760429        9.6568279430        9.4167994534
  C        13.7426287280       10.7587957603        8.6628566370
  C        49.1265343838       21.2332691495       13.8746619866
  C        48.5497621624       22.4010850955       13.1475029561
  C        49.2999673796       23.0687456892       12.1668586032
  C        48.7330074168       24.1078297208       11.4336265101
  C        47.4022965996       24.5090908612       11.6619194488
  C        46.6710931945       23.8597681292       12.6749468355
  C        47.2335609898       22.8148909483       13.4043307357
  C        46.7721378535       25.5868468274       10.8646522870
  C        46.7612843092       25.5573140681        9.4428926108
  C        47.2611166314       24.4421576651        8.6994281463
  C        14.8602054194        8.5705946833        8.7035254985
  C        14.8914646831        8.5969187128       11.5151440751
  C        49.1129483945       21.2033766485        2.1504258826
  C        48.5274866952       22.3645604361        2.8777173209
  C        49.2669496386       23.0257935922        3.8701177154
  C        48.6905549934       24.0602973857        4.6015797429
  C        47.3598756468       24.4564729132        4.3638405906
  C        46.6391561550       23.8109508927        3.3409395001
  C        47.2127457351       22.7750492253        2.6091672079
  C        46.7215364792       25.5315639815        5.1548015268
  C        46.7334486434       25.5280725830        6.5764965674
  C        47.2488063332       24.4288212737        7.3328755641
  C        40.6184672544       17.1076409098        7.3166754054
  C        40.6364897248       17.1193371079        4.5068941537
  C        11.8827144944       14.0864864937        2.2905041669
  C        12.4719103978       12.9104191145        2.9945632930
  C        11.7144486455       12.1775533726        3.9209705253
  C        12.2809254855       11.0950486881        4.5894314897
  C        13.6196042041       10.7209749250        4.3573841835
  C        14.3574382913       11.4360750533        3.3961113840
  C        13.7921137776       12.5172746837        2.7233862262
  C        14.2532946660        9.6243333055        5.1278762862
  C        14.2521791727        9.6444221508        6.5497231077
  C        13.7420717378       10.7532541408        7.2968093916
  C        22.5134338868        3.2444706905       13.7487862094
  C        23.2318006572        4.3489070755       13.0513122060
  C        24.2291284407        4.0668324814       12.1060083216
  C        24.8597930485        5.1049471928       11.4250729167
  C        24.5091144210        6.4475816244       11.6694045090
  C        23.5403631066        6.7212221438       12.6521218396
  C        22.9048893789        5.6848436068       13.3313367837
  C        25.1168575642        7.5528189331       10.8930652638
  C        25.0829829048        7.5473683941        9.4717307505
  C        24.3754244371        6.5502033839        8.7279099045
  C        38.3033682726       31.9297063243       13.8437585584
  C        37.5755170572       30.8396082123       13.1335121561
  C        36.6172678131       31.1421919292       12.1541688336
  C        36.0022033838       30.1208630079       11.4355385498
  C        36.3305489087       28.7721916345       11.6752522268
  C        37.2592085911       28.4770539783       12.6909522897
  C        37.8785640742       29.4970879002       13.4081574715
  C        35.7294941914       27.6796512935       10.8784690825
  C        35.7607808611       27.6941158200        9.4572781700
  C        36.4676331443       28.6957412326        8.7199825733
  C        25.7053281086        8.6165714046        8.7501843322
  C        25.7205685798        8.6249298727       11.5620436680
  C        38.3287897124       31.9622778060        2.1610323024
  C        37.6071109594       30.8889397959        2.9025812708
  C        36.6804907831       31.1975331076        3.9101490758
  C        36.0709104773       30.1787884997        4.6397254125
  C        36.3736029777       28.8262574297        4.3848485484
  C        37.2776064640       28.5276650350        3.3470676025
  C        37.8894673949       29.5429188859        2.6189073709
  C        35.7663363280       27.7268927933        5.1690287976
  C        35.7796199134       27.7182366322        6.5909268167
  C        36.4763786541       28.7075025450        7.3534952476
  C        46.1356380743       26.6208281167        7.2866044330
  C        46.0875730276       26.5798794579        4.4787057016
  C        22.4596680204        3.2557671710        2.2635318390
  C        23.1508224146        4.3646640755        2.9886543665
  C        24.1510868364        4.0790755652        3.9315164807
  C        24.7766567195        5.1094633307        4.6291825081
  C        24.4221330141        6.4551342130        4.4064099732
  C        23.4445867767        6.7339495946        3.4324410230
  C        22.8142746618        5.7037943303        2.7354050456
  C        25.0531190081        7.5534057076        5.1799417348
  C        25.0512190678        7.5466852324        6.6028441920
  C        24.3586980632        6.5506462931        7.3613277344
  C        26.6104585740       17.8557533790       13.7821758158
  C        25.3059409440       17.8976340445       13.0537875067
  C        25.0308954027       18.9162175633       12.1267846617
  C        23.8207012934       18.9328473029       11.4355200530
  C        22.8471139088       17.9367224110       11.6535327071
  C        23.1176385997       16.9405131714       12.6103436333
  C        24.3310641248       16.9166668676       13.2967366172
  C        21.5739779298       17.9245333265       10.8887756435
  C        21.5760558551       17.9134526581        9.4665921318
  C        22.7832947782       17.8021722552        8.7068364948
  C        34.4262851804       17.2194744834       13.9084384631
  C        35.7162845829       17.1528957613       13.1647949578
  C        35.9038815500       16.2004725284       12.1509437536
  C        37.0859572236       16.1789804408       11.4155751226
  C        38.1124099273       17.1095288174       11.6714954743
  C        37.9265965906       18.0410679798       12.7115755475
  C        36.7432898395       18.0674600183       13.4453490922
  C        39.3663352250       17.1164419238       10.8833631409
  C        39.3615721128       17.1315266551        9.4607481406
  C        38.1552407118       17.2523594619        8.7013477639
  C        20.3300215969       17.9293472497        8.7574354390
  C        20.3493101867       17.9204875676       11.5710469266
  C        34.4469693332       17.2350385080        2.1899153153
  C        35.7507368251       17.1273771528        2.9033218423
  C        35.9507803923       16.1590812888        3.8991817187
  C        37.1410988329       16.1393912412        4.6228140501
  C        38.1578788903       17.0803621970        4.3721403047
  C        37.9647620488       18.0178099551        3.3387803623
  C        36.7747512276       18.0464505872        2.6185664377
  C        39.4040422221       17.1049824549        5.1704322743
  C        39.3811342194       17.1247049594        6.5924711545
  C        38.1640906747       17.2454391663        7.3346391801
  C        35.1492734831       26.6390045804        7.2950737960
  C        35.1734676556       26.6578635457        4.4861386067
  C        26.5727580666       17.8232801214        2.3314462041
  C        25.2579706377       17.8754296685        3.0349121969
  C        24.9877667578       18.8908731852        3.9647004173
  C        23.7696344270       18.9182719814        4.6377352951
  C        22.7924170419       17.9304636627        4.4037303347
  C        23.0558970719       16.9404498822        3.4398030318
  C        24.2747630040       16.9107679550        2.7653633402
  C        21.5289187924       17.9128117166        5.1770211922
  C        21.5530969018       17.9052235638        6.5983980857
  C        22.7723670965       17.7973843596        7.3404938609
  C        14.0461083594       17.8291032564        2.2929940164
  C        15.3514379901       17.8869267961        3.0173292559
  C        15.6080407511       18.8903177724        3.9645429032
  C        16.8174712559       18.9117052879        4.6566156804
  C        17.8040862507       17.9326426640        4.4228247794
  C        17.5523979005       16.9534704667        3.4434211445
  C        16.3422328232       16.9274524655        2.7532699884
  C        19.0731244945       17.9160570661        5.1915911164
  C        19.0714879513       17.9107288624        6.6139491282
  C        17.8641250997       17.8076012640        7.3742185349
  C        46.8029775634       17.2176548100        2.1638160127
  C        45.5119282454       17.1522276608        2.9072862226
  C        45.3091435701       16.1766368111        3.8959669810
  C        44.1261590822       16.1541568878        4.6300431212
  C        43.1146930931       17.1068909713        4.3980204975
  C        43.3146114981       18.0613339176        3.3820526612
  C        44.4984950579       18.0881318373        2.6490544915
  C        41.8604656674       17.1145680259        5.1859588200
  C        41.8655467423       17.1209147981        6.6081732915
  C        43.0736973238       17.2229754229        7.3670355060
  C        20.3178984068       17.9241557766        7.3227438856
  C        20.2974420317       17.8986726545        4.5097656297
  C        46.7826607979       17.2317100582       13.8815277935
  C        45.4794417395       17.1262828779       13.1643832000
  C        45.2626239527       16.1325792895       12.1972399308
  C        44.0739396826       16.1052934532       11.4714337413
  C        43.0700784342       17.0683613866       11.6941393115
  C        43.2776329648       18.0315356130       12.6996458040
  C        44.4674907486       18.0655176720       13.4205835807
  C        41.8224102165       17.0901314485       10.8971790787
  C        41.8461509509       17.1077228365        9.4756239142
  C        43.0646599429       17.2138229992        8.7338183615
  C        46.1534094126       26.6372715363        8.7211475131
  C        46.1622168442       26.6559673457       11.5307844798
  C        14.0442556001       17.8295390048       13.7023552301
  C        15.3643959316       17.8988895749       13.0083250586
  C        15.6416209739       18.9161540537       12.0830727405
  C        16.8703437626       18.9500577695       11.4273347819
  C        17.8491976081       17.9657788821       11.6713065419
  C        17.5782581346       16.9759280761       12.6333010921
  C        16.3515957837       16.9417387038       13.2926031399
  C        19.1171575359       17.9411543303       10.9033085676
  C        19.0945797978       17.9227019195        9.4817733780
  C        17.8752961783       17.8131750116        8.7402455136
  C        28.8022125409       14.0853189634        2.3923129097
  C        28.1889739182       12.9142588742        3.0806679699
  C        28.9177210381       12.1617325355        4.0141048652
  C        28.3163410588       11.0895394457        4.6682578253
  C        26.9741046727       10.7444740877        4.4109062347
  C        26.2675834708       11.4759025008        3.4393312424
  C        26.8655917833       12.5497000287        2.7849509016
  C        26.3062901813        9.6650609269        5.1737355109
  C        26.3018871786        9.6897318102        6.5947548652
  C        26.8121419681       10.8004763378        7.3389172982
  C        32.1794243462       21.2420208353        2.1534788532
  C        32.7697136811       22.4107693895        2.8675455550
  C        32.0250282040       23.0830265125        3.8487592508
  C        32.5964053286       24.1215139274        4.5769052991
  C        33.9285108544       24.5150223688        4.3450240138
  C        34.6552929222       23.8618881430        3.3317017260
  C        34.0863914600       22.8180930170        2.6051228146
  C        34.5595691029       25.5878411961        5.1461211652
  C        34.5547415762       25.5563322533        6.5677328381
  C        34.0471820877       24.4404223604        7.3058888467
  C        25.6933030812        8.6126284679        7.3155200051
  C        25.6656500103        8.6160781016        4.5018967903
  C        32.1049255678       21.2309935073       13.8799494785
  C        32.6976245442       22.3805143753       13.1353739068
  C        31.9614354872       23.0435645981       12.1415153522
  C        32.5431611281       24.0708974632       11.4025393620
  C        33.8742579197       24.4655803959       11.6407177040
  C        34.5932535419       23.8161539127       12.6622991650
  C        34.0166168065       22.7825026600       13.3956501389
  C        34.5153259255       25.5456570931       10.8557526698
  C        34.5313140678       25.5356301543        9.4339642776
  C        34.0348000391       24.4309776230        8.6726377073
  C        40.6083811990       17.1058869947        8.7518423174
  C        40.5911097307       17.1112505378       11.5620713223
  C        28.7521881204       14.0699226659       13.8134793703
  C        28.1457925514       12.9205900561       13.0771738572
  C        28.8782339542       12.2374284595       12.0943149658
  C        28.3006295784       11.1786097518       11.3974021574
  C        26.9740391152       10.7781768992       11.6559085006
  C        26.2594336102       11.4494723619       12.6659314007
  C        26.8358053003       12.5073602827       13.3660991377
  C        26.3314105838        9.6878809838       10.8834732139
  C        26.3148196916        9.7022554967        9.4614585577
  C        26.8151666930       10.8083070078        8.7047863550
  C        18.1354603615        3.1810081971        2.3222236656
  C        17.4061369351        4.2782438871        3.0208890468
  C        16.3904908553        3.9998443702        3.9484653310
  C        15.7427292391        5.0397891131        4.6119925262
  C        16.0945164815        6.3835242613        4.3722415238
  C        17.0837848136        6.6530848277        3.4083741339
  C        17.7329138225        5.6157759818        2.7433076864
  C        15.4700988031        7.4911980205        5.1352484469
  C        15.4855737242        7.4906483785        6.5569573158
  C        16.1873275777        6.4971717336        7.3101266834
  C        42.9459799322       31.8594828921        2.0780445198
  C        43.6463188627       30.7718322336        2.8219285177
  C        44.5920630675       31.0931129079        3.8078218563
  C        45.1977310285       30.0875334799        4.5554595464
  C        44.8711056326       28.7344826503        4.3407481196
  C        43.9451148868       28.4201822732        3.3276625161
  C        43.3363488552       29.4253488425        2.5796187583
  C        45.4886527325       27.6551835327        5.1439606931
  C        45.4930226300       27.6809849093        6.5656512347
  C        44.8061731559       28.6892023176        7.3122602392
  C        14.8564299640        8.5630553229        7.2692950248
  C        14.8745810377        8.5628071916        4.4566277552
  C        42.9465092229       31.9615456177       13.8038283340
  C        43.6917248884       30.8854626156       13.0904027609
  C        44.6564058947       31.1913765623       12.1181697786
  C        45.2779480682       30.1717880344       11.4004794345
  C        44.9540740534       28.8214600198       11.6379903676
  C        44.0205391239       28.5237864303       12.6487295195
  C        43.3922681744       29.5405470238       13.3608987277
  C        45.5631002715       27.7240730549       10.8527323583
  C        45.5336045935       27.7175242536        9.4314310561
  C        44.8274302765       28.7078332760        8.6784437398
  C        35.1385824420       26.6274907740        8.7296626917
  C        35.1252808395       26.6042666211       11.5392483329
  C        18.1486228107        3.2469688503       13.7014935543
  C        17.4300052744        4.3438291941       12.9922075653
  C        16.4148086978        4.0525899752       12.0686169109
  C        15.7665024552        5.0832104989       11.3931955049
  C        16.1210876928        6.4284527270       11.6159896988
  C        17.1124241359        6.7118136948       12.5732922653
  C        17.7601003729        5.6829025533       13.2530604558
  C        15.4905575981        7.5241439582       10.8435480933
  C        15.4966091814        7.5075965886        9.4224114667
  C        16.1935820152        6.5060244169        8.6757327189
  H        10.6721961826       12.4661710053       11.8990576594
  H        11.6942493786       10.5513170029       10.6572131992
  H        15.3907937763       11.1674748740       12.7680296358
  H        14.3503119993       13.0703010117       14.0133902346
  H        13.3752507738       11.6307754446        9.1961471665
  H        50.3227980685       22.7489696693       11.9823782525
  H        49.3195345970       24.6233636483       10.6762691316
  H        45.6413813387       24.1600481096       12.8576857210
  H        46.6622833303       22.2891954567       14.1659172253
  H        47.6293998928       23.5756874241        9.2411409823
  H        14.8716004987        8.5880350334       12.6034458716
  H        50.2871959355       22.7033727283        4.0646423862
  H        49.2690115724       24.5761376014        5.3647718648
  H        45.6094457765       24.1075103016        3.1524645338
  H        46.6515881617       22.2522851871        1.8382516457
  H        47.6073409356       23.5515929490        6.8019852787
  H        40.6432982291       17.0798758472        3.4192875334
  H        48.6865985358       14.0949007755       15.7947646036
  H        10.6810573920       12.4668493812        4.0985166233
  H        11.6890672173       10.5248776051        5.3022550620
  H        15.3926878282       11.1577385554        3.2098458450
  H        14.3642776800       13.0862660875        1.9944279490
  H        13.3748391692       11.6216808615        6.7581540074
  H        47.9300689959       14.2173022585        1.7160504145
  H        47.7796145104       14.3718890914       14.4893731050
  H        49.0820540532       18.5518767552        2.8719173267
  H        10.4151388361       14.1343947744        0.0037686076
  H        24.4875548293        3.0276579665       11.9149474272
  H        25.6328899656        4.8856837795       10.6917938899
  H        23.2623709121        7.7548661723       12.8473349969
  H        22.1346239536        5.8870121024       14.0716029147
  H        23.8149771471        5.7942486230        9.2701727047
  H        36.3796638719       32.1851276775       11.9582906017
  H        35.2587652055       30.3585001000       10.6778515148
  H        37.5202135706       27.4383004632       12.8825619792
  H        38.6215037276       29.2776415931       14.1712664957
  H        37.0344650889       29.4442596101        9.2659562523
  H        25.7607934358        8.6061107627       12.6496542294
  H        36.4592133915       32.2417692411        4.1190237330
  H        35.3471558846       30.4233923653        5.4140419095
  H        37.5231894861       27.4874190986        3.1437870463
  H        38.6102776060       29.3175813166        1.8367313021
  H        37.0508659741       29.4646590648        6.8276595249
  H        46.1087252624       26.5870458620        3.3906614136
  H        44.6684213750       35.1161803999       15.8087698544
  H        24.4294337635        3.0410300099        4.0987917029
  H        25.5565376700        4.8810490287        5.3524885435
  H        23.1592724603        7.7682880932        3.2515227990
  H        22.0438714376        5.9161454503        1.9977305904
  H        23.7846746713        5.7957281905        6.8318666224
  H        44.9542654010       34.3907570004        1.7004788080
  H        44.9021416079       34.2069447482       14.4854188659
  H        40.6661564610       33.2091036864        2.8582391310
  H        23.1506066800        1.9577398639        0.0108061549
  H        25.7729355211       19.6966437007       11.9707532229
  H        23.6117891710       19.7284730533       10.7233517191
  H        22.3774518822       16.1625550872       12.7863021767
  H        24.5512221533       16.1338114362       14.0189418557
  H        23.7240457713       17.6883033073        9.2376344469
  H        35.1071913261       15.4902741684       11.9430514338
  H        37.2275949072       15.4320885334       10.6375640781
  H        38.7097595091       18.7685112111       12.9148106958
  H        36.5852715798       18.8024196600       14.2312326689
  H        37.2147109867       17.3779114378        9.2298853411
  H        20.3554730087       17.9532677411       12.6591520652
  H        35.1622326802       15.4473137459        4.1320757245
  H        37.2867498782       15.3888181154        5.3965773783
  H        38.7426087247       18.7513778920        3.1373080976
  H        36.6045884956       18.7914131447        1.8451191786
  H        37.2302038493       17.3610697513        6.7920140418
  H        35.1428493411       26.6854213423        3.3985630947
  H        28.5113685019       21.0870348913       15.9711915656
  H        25.7439290058       19.6521589061        4.1414804254
  H        23.5595042413       19.7093203010        5.3543831833
  H        22.3089510932       16.1715285257        3.2533758402
  H        24.4945876384       16.1345284494        2.0362767697
  H        23.7049130410       17.6799647086        6.7963344476
  H        29.0040690425       21.7200926679        1.7685723349
  H        29.1418030370       21.7573350169       14.6083337861
  H        32.1457651608       18.5769686135        2.9688909920
  H        27.4078420051       19.0803962734        0.1033332292
  H        14.8490320844       19.6486742351        4.1432894724
  H        17.0128214083       19.6957244626        5.3851027714
  H        18.3038142164       16.1895272204        3.2544128963
  H        16.1356209139       16.1582841930        2.0128805334
  H        16.9222952359       17.6914255824        6.8458570887
  H        46.0956858795       15.4492020578        4.0824368580
  H        43.9705606399       15.3898049477        5.3882382999
  H        42.5419647830       18.8048092531        3.1973941082
  H        44.6678160291       18.8399717169        1.8817560421
  H        44.0150934521       17.3394939397        6.8377228204
  H        20.2916341144       17.9276560681        3.4216186954
  H        46.0412171377       15.3951137323       12.0157613750
  H        43.9104701328       15.3334494497       10.7224611621
  H        42.5088785679       18.7800691176       12.8799946865
  H        44.6464744329       18.8289847751       14.1737263357
  H        43.9991516197       17.3220050299        9.2767262612
  H        46.1988588760       26.6823603437       12.6182402680
  H        52.7408218593       21.0624657104        0.1997637285
  H        14.8844838991       19.6741882552       11.8947565511
  H        17.0846897782       19.7422139783       10.7131330476
  H        18.3248882821       16.2088857930       12.8285250708
  H        16.1269183316       16.1653520783       14.0198982447
  H        16.9419059076       17.7013125897        9.2837608066
  H        52.3215433788       21.6728586301       14.2894062141
  H        52.0125150074       21.7015192445        1.5006872948
  H        49.0660858470       18.6073161683       13.1992058540
  H        13.2469260359       19.0166430098       15.9716080095
  H        29.9540717708       12.4272524748        4.2116049472
  H        28.8823274498       10.5051680453        5.3905478201
  H        25.2308384458       11.2180214115        3.2330706862
  H        26.3183474531       13.1359511967        2.0508060237
  H        27.1753085292       11.6683436579        6.7967540149
  H        31.0029866635       22.7639536938        4.0366614410
  H        32.0151788310       24.6419561131        5.3348281069
  H        35.6864189524       24.1565893327        3.1477400710
  H        34.6537379107       22.2871541367        1.8441728591
  H        33.6906876777       23.5708887648        6.7608733753
  H        25.6906519566        8.5978648675        3.4137543701
  H        30.9355165825       22.7331586469       11.9566708959
  H        31.9668237164       24.5860158424       10.6371471326
  H        35.6238382476       24.1097911499       12.8507864478
  H        34.5771549596       22.2576587497       14.1657176112
  H        33.6692304168       23.5542281236        9.2000040542
  H        40.5845604460       17.0697841672       12.6496355224
  H        32.5222023773       14.1517202615        0.2528900889
  H        29.9004254187       12.5506028010       11.8939732253
  H        28.8775856606       10.6441375231       10.6457889650
  H        25.2332509389       11.1529436590       12.8731726448
  H        26.2806109014       13.0402016234       14.1343902924
  H        27.1798014544       11.6823914748        9.2363820138
  H        33.3022070489       14.2202361011       14.4457935414
  H        33.4033067601       14.3528894033        1.6368023506
  H        32.1405436428       18.5627606587       13.1988800466
  H        30.2335565603       14.1917157409        0.0770993228
  H        16.1185305051        2.9633204011        4.1349070581
  H        14.9533228769        4.8203836442        5.3276958439
  H        17.3660636320        7.6859796135        3.2151670043
  H        18.5148697680        5.8184095436        2.0153689114
  H        16.7539998748        5.7399172018        6.7766240441
  H        44.8285167896       32.1401662840        3.9819355977
  H        45.9377556026       30.3412430727        5.3112643286
  H        43.6822628740       27.3781319629        3.1576465916
  H        42.5996282776       29.1899919165        1.8150619871
  H        44.2309092942       29.4370376946        6.7739553598
  H        14.8506048793        8.5458800986        3.3684156286
  H        44.9000624595       32.2340418477       11.9267840218
  H        46.0249187710       30.4130205521       10.6473078614
  H        43.7635094159       27.4840569946       12.8402174360
  H        42.6457804325       29.3176804398       14.1193319962
  H        44.2690493569       29.4708354210        9.2129922277
  H        35.0827520212       26.6169222981       12.6267078351
  H        36.6051985340       35.1340163908        0.1858008141
  H        16.1437786297        3.0130057680       11.8988496408
  H        14.9742019229        4.8563644664       10.6830794270
  H        17.3958584951        7.7472880123       12.7502347547
  H        18.5429886751        5.8933262644       13.9778158915
  H        16.7651028476        5.7558654631        9.2141952013
  H        36.2787094274       34.4824374061       14.2679955403
  H        36.3813132937       34.2090418282        1.5047794497
  H        40.5807542472       33.2028840307       13.1484361965
  H        17.4708491665        1.9474225038       15.9690360970
  H        28.7874289917       18.9143465323        4.3987149669
  H        28.7968502586       18.6076807701       11.9366323629
  H        31.8616174560       15.8326226213       11.5450125565
  H        30.9377263500       15.3508642291        4.3131765665
  H        28.5328715745       17.1602114341        7.0709394266
  H        29.6158932713       14.9621603423        6.9813629700
  H        30.4986101283       20.0854740007       10.0847541826
  H        32.8065819460       17.6448459119        9.2649789020
  H        18.8536931709        0.8690443503        4.3403978302
  H        40.5280316845       35.2289622474       11.9469121116
  H        42.3245529346       34.4192880046       11.5850852008
  H        22.0878742147        0.6920146997        4.3568019884
  H        11.5970275924       18.7128832395        4.3872879531
  H        52.2647349045       18.4307757397       11.6724932480
  H        49.2552097623       16.4768810392       11.5792772769
  H        10.1498673717       15.7980803240        4.2980428232
  H        50.8496061007       17.6923648818       11.9492813178
  H        10.0458063666       17.3943526351        4.0571367434
  H        20.2150779058        0.0022717030        4.0470684324
  H        39.1838270870       36.1245560830       11.6814631694
 Ni        30.9854774189       17.8886226433       10.9099143722
 Ni        31.1560537609       16.3255379170        8.3239805273
 Ni        30.0997010580       18.8457247312        7.9119459705
 Ni        30.2221782489       17.2635849331        5.4139219444
  O        10.6497505280       14.3651647815       13.4806729404
  O        12.6130805332       14.6575313491       14.5787451551
  O        49.1477823193       16.8460526193       15.9845899110
  O        50.3501604926       20.9360527559       13.6430998986
  O        48.3485162528       20.5932811162       14.6608866916
  O        11.0511508117       17.0540068558       14.4953591276
  O        50.3209384098       20.8816695104        2.4118657405
  O        48.3467077208       20.5867234145        1.3321629377
  O        49.5434685319       18.2484810516        2.0733659658
  O        12.3587124497       18.6244682292        0.0048172313
  O        48.6931653866       14.1487134196       14.7461113460
  O         8.2098131336       14.2104053027        1.3276541282
  O        10.7353493927       14.5067834545        2.6694608017
  O        12.5717474986       14.5828594405        1.3335619129
  O        22.8446830663        2.0430846057       13.4820970207
  O        21.6059689371        3.5925545859       14.5841800018
  O        42.0582838207       34.1374582476       15.9738972604
  O        37.9819013171       33.1378562214       13.5674059861
  O        39.2183515566       31.5762637577       14.6618096092
  O        20.3084959123        1.0396711790       14.4969801726
  O        38.0247056491       33.1859023235        2.4202274467
  O        39.2192224097       31.5838420532        1.3314304234
  O        40.6523405238       33.7694218108        2.0653647649
  O        18.2554906590        1.3762006539        0.0019057721
  O        44.6222383988       35.1005549717       14.7536281841
  O        24.2054059217        0.0000455095        1.3259011145
  O        22.7529235402        2.0578135203        2.5889859608
  O        21.6243484981        3.5960283274        1.3475954237
  O        27.4874541526       18.7483594478       13.4897484866
  O        26.7585884731       16.9349415520       14.6528185313
  O        30.6670849936       19.4092324176        0.0879381627
  O        33.5461670527       16.3297463102       13.6539610113
  O        34.2748535357       18.1819581759       14.7363679773
  O        29.5737628223       17.0667809793       14.5767091052
  O        33.5534099426       16.3432804293        2.4238534298
  O        34.3001136450       18.2406656915        1.4135690557
  O        31.6510981181       18.3123449766        2.1768651065
  O        30.3244921398       15.1587696400        0.0923500448
  O        28.5517094907       21.0388781547       14.8999344470
  O        28.5154355676       20.9551627733        1.4196128266
  O        27.4646664215       18.6749780539        2.6709086485
  O        26.6950463604       16.9308062268        1.4190251095
  O        13.1488801468       18.6930511662        2.5925283486
  O        13.9194287551       16.9160936643        1.4099487423
  O        50.5954353625       19.3501361132        0.0254993476
  O        47.6829576861       16.3272220711        2.4224300648
  O        46.9509980785       18.1755813770        1.3302293058
  O        11.0693072531       17.0156666521        1.4948709432
  O        47.6744531021       16.3360892973       13.6473213880
  O        46.9253666201       18.2357294625       14.6583100327
  O        49.5680830218       18.3176906019       13.9770578014
  O        10.3184023198       15.1003168968        0.0021612309
  O        52.6707246815       21.0279119533        1.2469508909
  O        12.1468287315       20.8910724687       14.6679947898
  O        13.1086034384       18.6135374841       13.3202993282
  O        13.9571443807       16.9867039097       14.6603830688
  O        29.9895917069       14.4350420241        2.7290666799
  O        28.0878324608       14.6540095278        1.4984374224
  O        32.1333041161       16.8624984494        0.0811845929
  O        30.9643379321       20.9476718484        2.4210087916
  O        32.9455428035       20.6036224858        1.3488647229
  O        29.5693933642       17.0790631917        1.5846332425
  O        30.8750632787       20.9497078564       13.6585990429
  O        32.8796514319       20.5893626830       14.6645644976
  O        31.6548044982       18.3078730492       14.0004839511
  O        28.2918773236       18.6789523429        0.0859973657
  O        32.4886968310       14.2121795958        1.3316381105
  O        32.4041104677       14.2214091570       14.8174347913
  O        29.9235411412       14.4437909257       13.4860605457
  O        28.0410205431       14.5910795148       14.7472185046
  O        17.8892609199        1.9666723177        2.6679214898
  O        18.9562316750        3.5271531269        1.4130368759
  O        39.1686863646       34.1388380263        0.0023139661
  O        43.2801907508       33.0589844217        2.3367841448
  O        42.0345477727       31.5064499216        1.2467516926
  O        20.3178034040        1.0369061898        1.4852537807
  O        43.2760935993       33.1825675652       13.5697744343
  O        42.0052617948       31.5841317295       14.5778646007
  O        40.5791845468       33.7752073101       13.9308190493
  O        22.3673956514        1.3846363287        0.0029518323
  O        36.6727723294       35.0998038461        1.2384320333
  O        16.4455670298        0.0642894058       14.6631643430
  O        17.9364778240        2.0433881952       13.3212697787
  O        18.9190586414        3.5931888280       14.6608065088
  O        29.7007669621       18.9019185549       12.1503366153
  O        29.7361328275       18.9653754872        4.1620727015
  O        31.3002135378       16.4151556758       12.0905077716
  O        31.2325644190       16.2524069241        4.0709157556
  O        32.2809499233       16.9283328170        9.6668198144
  O        30.3241525869       15.6041858151        6.8146423200
  O        31.5167133203       17.8188292237        6.9106894495
  O        30.9593305817       19.3444727898        9.6519644657
  O        28.7661196002       18.0108830138        6.6550934862
  O        39.4568217567       35.2438221966       11.9968398407
  O        19.1415853323        0.0046003134        3.9956095032
  O        41.9695864064       35.1726626861       12.0820556267
  O        21.6912964219       -0.0692506795        3.9010453837
  O        51.3649653247       18.6142663049       12.0004125954
  O        10.7511505839       18.7472923001        3.9099663221
  O        50.0796615474       16.4128786544       12.0866227401
  O         9.5242690279       16.4830620864        3.9963438789
 Zr         9.2951202017       16.0528812231       14.1771003892
 Zr        49.8348805169       16.0067316441        1.7517847479
 Zr        22.0735237571        0.0299002548       14.1838036538
 Zr        42.4611630169       35.1534368773        1.8060419288
 Zr        29.6003685054       19.1232002368       14.2922806713
 Zr        29.5919959853       19.1754749294        1.8907614429
 Zr        11.0367016806       19.0520688215        1.8325287241
 Zr        11.0424802891       19.1549206549       14.2464634110
 Zr        31.3554785265       16.0983322528        1.8693935049
 Zr        31.3823616443       16.0306736938       14.2736552262
 Zr        18.6014276011       -0.0011527218        1.7683857298
 Zr        18.5066678932       -0.0075640997       14.2087578508
 Zr        12.3002402304       16.3234079668       15.9851839857
 Zr        48.6141420255       18.8325547726        0.0152207883
 Zr        20.3154266662        2.4735612698       15.9852129054
 Zr        40.6439084518       32.6871840051       15.9732013279
 Zr        28.3530910842       16.3407032457        0.0812320222
 Zr        32.6308805177       18.8464934216        0.0571221905
  H        32.3620082406       18.2602790100        6.7222158931
  O        33.4165470695       15.0975060216        5.6633304522
  H        32.7737483022       14.8919798615        6.3642348045
  H        32.8860447842       15.6530946238        5.0530106654
  O        28.0924335315       19.6409592431        8.6548121107
  H        27.8001411741       19.0944132528        7.8825130572
  H        27.7821253060       19.1751160184        9.4495877563
  O        30.3297186333       20.4380905227        6.4156253287
  H        30.1488971340       19.9945317419        5.5248189184
  H        29.6645002372       21.1408411204        6.4945704366
  H        30.5695522182       15.3863537924        9.2520722103
