     583
 i =      236, E =     -4830.6194778464
  C        11.8586380721       14.0535557010       13.7364908391
  C        12.4561210397       12.8905035965       13.0182449124
  C        11.7045668592       12.1719352925       12.0762087799
  C        12.2808951399       11.1097061146       11.3838437140
  C        13.6213090052       10.7395583899       11.6119234727
  C        14.3542843765       11.4426841692       12.5858657166
  C        13.7814388998       12.5076784752       13.2773800888
  C        14.2608725944        9.6489302826       10.8385114700
  C        14.2564138902        9.6569429198        9.4168056314
  C        13.7431975066       10.7590361294        8.6628831900
  C        49.1267329961       21.2333056404       13.8745202408
  C        48.5500193965       22.4011522279       13.1474137434
  C        49.3001392411       23.0686595405       12.1666057798
  C        48.7331931244       24.1077924471       11.4334292256
  C        47.4025530385       24.5092419013       11.6618820802
  C        46.6714697495       23.8601190081       12.6751412157
  C        47.2339432066       22.8152193245       13.4044743817
  C        46.7723393569       25.5869625363       10.8646178707
  C        46.7615331979       25.5574517366        9.4428571708
  C        47.2614594979       24.4423546515        8.6993670159
  C        14.8603382480        8.5705956064        8.7035336480
  C        14.8915842449        8.5969238047       11.5151412204
  C        49.1131940287       21.2035194242        2.1504673202
  C        48.5278424387       22.3647897751        2.8776573381
  C        49.2671478315       23.0257152159        3.8703792132
  C        48.6907979696       24.0602615600        4.6018126360
  C        47.3602856797       24.4568272200        4.3637390915
  C        46.6397362983       23.8116545350        3.3404832171
  C        47.2133213685       22.7757495131        2.6087323503
  C        46.7218717033       25.5318293197        5.1547381311
  C        46.7337629968       25.5282598578        6.5764336608
  C        47.2491909778       24.4290491798        7.3328188295
  C        40.6363575965       17.1680548524        7.3270291025
  C        40.6574298467       17.1890421371        4.5180870811
  C        11.8828601224       14.0865353648        2.2905708663
  C        12.4721792341       12.9106270217        2.9947355188
  C        11.7147120416       12.1775666815        3.9209851612
  C        12.2812598017       11.0950968781        4.5894267420
  C        13.6200075620       10.7212088594        4.3574696303
  C        14.3579080614       11.4365799052        3.3964616369
  C        13.7925132619       12.5177662006        2.7237655935
  C        14.2536945846        9.6245324479        5.1279244243
  C        14.2524961525        9.6445497961        6.5497657917
  C        13.7426764625       10.7535262316        7.2968361882
  C        22.5111648407        3.2446639384       13.7470236183
  C        23.2239927360        4.3506876822       13.0452947810
  C        24.2213298700        4.0713551613       12.0992700782
  C        24.8473195159        5.1111204205       11.4163314995
  C        24.4917251407        6.4529051330       11.6588211030
  C        23.5219177176        6.7238213457       12.6413388011
  C        22.8915548517        5.6858114332       13.3228970276
  C        25.0990053322        7.5593411078       10.8835409128
  C        25.0778093132        7.5512125295        9.4617456471
  C        24.3766606966        6.5521130336        8.7144336623
  C        38.3020339443       31.9298781904       13.8444378578
  C        37.5713418411       30.8408439455       13.1362505132
  C        36.6135573665       31.1448159480       12.1567297945
  C        35.9959559608       30.1244202852       11.4390784938
  C        36.3211546091       28.7750789592       11.6795392657
  C        37.2486068595       28.4787242707       12.6961100945
  C        37.8706377429       29.4977544963       13.4124033892
  C        35.7195496714       27.6831864905       10.8822755986
  C        35.7531395576       27.6970285637        9.4610434617
  C        36.4604426040       28.6986467620        8.7241916717
  C        25.7065619183        8.6186884005        8.7426022468
  C        25.6934824395        8.6353016391       11.5547995095
  C        38.3287708206       31.9617700930        2.1617780617
  C        37.6078741972       30.8886911843        2.9040629477
  C        36.6813853030       31.1971293764        3.9119587777
  C        36.0721460941       30.1784863776        4.6420086173
  C        36.3747436699       28.8256552733        4.3878797174
  C        37.2787133977       28.5273435521        3.3498111613
  C        37.8902420380       29.5424101395        2.6210713589
  C        35.7673709491       27.7262592974        5.1721976419
  C        35.7776405833       27.7190158237        6.5942701162
  C        36.4717811028       28.7094810556        7.3576728245
  C        46.1358226487       26.6209308913        7.2865598921
  C        46.0877857386       26.5801047680        4.4786752306
  C        22.4623944807        3.2563037164        2.2624817229
  C        23.1600297198        4.3648925274        2.9837513485
  C        24.1652635361        4.0778356801        3.9209989765
  C        24.7967763532        5.1071463728        4.6153733747
  C        24.4434484271        6.4536173090        4.3954538163
  C        23.4613207854        6.7340128086        3.4265542814
  C        22.8252659233        5.7049004579        2.7325941077
  C        25.0767868188        7.5508523222        5.1698677280
  C        25.0675494989        7.5455395760        6.5926648627
  C        24.3698527929        6.5506144432        7.3478194685
  C        26.6183931105       17.8620624581       13.7857212069
  C        25.3081895226       17.9116998544       13.0623558751
  C        25.0150059697       18.9592686621       12.1719171995
  C        23.8063836751       18.9743846843       11.4748536526
  C        22.8514905453       17.9540620222       11.6563588922
  C        23.1392742402       16.9301391386       12.5782521636
  C        24.3515387621       16.9042381202       13.2665004760
  C        21.5779096800       17.9449470026       10.8908329920
  C        21.5812966500       17.9410850058        9.4689209987
  C        22.7899311195       17.8420821284        8.7092951917
  C        34.4214134282       17.2228239259       13.8780722373
  C        35.7177056107       17.1680503751       13.1436179907
  C        35.9112101505       16.2284158110       12.1194521077
  C        37.0985987635       16.2154534690       11.3939703278
  C        38.1217162438       17.1432039935       11.6701668515
  C        37.9303535325       18.0617246220       12.7198915431
  C        36.7417328369       18.0785007714       13.4450152435
  C        39.3777455568       17.1569578246       10.8886942769
  C        39.3760630040       17.1886290630        9.4672383511
  C        38.1721374769       17.3329053428        8.7080363418
  C        20.3341582839       17.9516066334        8.7607158807
  C        20.3543863520       17.9352085083       11.5745720984
  C        34.4788791605       17.2481066106        2.1833166610
  C        35.7817619439       17.1799428595        2.9069163225
  C        35.9915560998       16.2126432278        3.9008575650
  C        37.1762852346       16.2042336548        4.6313919839
  C        38.1798726338       17.1611367714        4.3851976180
  C        37.9765750792       18.1026172766        3.3591947733
  C        36.7888121289       18.1175552807        2.6331637376
  C        39.4258443829       17.1853082941        5.1812050784
  C        39.4008998353       17.2024054756        6.6019544430
  C        38.1837995672       17.3362371834        7.3415671006
  C        35.1470484209       26.6396385072        7.2982086563
  C        35.1768324810       26.6558410075        4.4891652275
  C        26.5717470425       17.8266414404        2.3297336618
  C        25.2559899262       17.8799273771        3.0328618277
  C        24.9849374895       18.9035015043        3.9531591243
  C        23.7674436794       18.9353261306        4.6271232998
  C        22.7925947523       17.9429379321        4.4041171977
  C        23.0569551322       16.9439869683        3.4498592780
  C        24.2749905288       16.9106889390        2.7736901631
  C        21.5302759150       17.9283726311        5.1796037901
  C        21.5560646855       17.9290595284        6.6011977026
  C        22.7769587368       17.8344239998        7.3427533591
  C        14.0468106852       17.8290617131        2.2939223775
  C        15.3515664619       17.8874259096        3.0194756550
  C        15.6066462633       18.8911058297        3.9670138962
  C        16.8156665921       18.9142551321        4.6598227782
  C        17.8043024593       17.9367416204        4.4272022752
  C        17.5538499957       16.9569469216        3.4478882622
  C        16.3440647499       16.9291492436        2.7567761944
  C        19.0739803668       17.9243564964        5.1956918392
  C        19.0739055209       17.9240120452        6.6180898143
  C        17.8675586892       17.8181258557        7.3793989205
  C        46.8069253067       17.2204362510        2.1648922676
  C        45.5197939609       17.1655498883        2.9132913715
  C        45.3124941768       16.1931749491        3.9036249095
  C        44.1326527402       16.1845594076        4.6424703627
  C        43.1319998385       17.1484884338        4.4117765199
  C        43.3368223012       18.1005541120        3.3951744780
  C        44.5170608048       18.1131861072        2.6575256707
  C        41.8797454649       17.1696689531        5.1994504978
  C        41.8842058612       17.1713554511        6.6209467679
  C        43.0925631079       17.2571612378        7.3816085652
  C        20.3209517572       17.9446312983        7.3260063838
  C        20.2981924103       17.9071386373        4.5135057617
  C        46.7850907109       17.2307144872       13.8854489112
  C        45.4808229608       17.1257345876       13.1733581575
  C        45.2608172855       16.1315830665       12.2080786914
  C        44.0724164721       16.1099393725       11.4824497400
  C        43.0753679968       17.0792160302       11.7057588522
  C        43.2845724720       18.0410162316       12.7115726446
  C        44.4741245868       18.0694587298       13.4318167455
  C        41.8312174108       17.1122637192       10.9067652987
  C        41.8594575914       17.1404450271        9.4862761961
  C        43.0807645810       17.2400053310        8.7480468706
  C        46.1535564750       26.6373423079        8.7211010740
  C        46.1622546002       26.6560069636       11.5307466737
  C        14.0456330235       17.8311065478       13.7031356783
  C        15.3669430586       17.9043168638       13.0116365382
  C        15.6414588267       18.9203107360       12.0840146863
  C        16.8706750153       18.9574301890       11.4294043543
  C        17.8536157564       17.9776803783       11.6761870852
  C        17.5856195289       16.9900232219       12.6414727250
  C        16.3583686080       16.9525254499       13.2997604676
  C        19.1215558326       17.9562072171       10.9077024908
  C        19.0990207638       17.9395395543        9.4860450397
  C        17.8796063989       17.8251718966        8.7452774825
  C        28.8123287729       14.0862829482        2.3664878955
  C        28.2056811348       12.9131699181        3.0631921902
  C        28.9374803766       12.1657795655        3.9977040069
  C        28.3407865037       11.0939587925        4.6582434532
  C        26.9991680040       10.7432541269        4.4049832479
  C        26.2885507309       11.4709618495        3.4337458800
  C        26.8821213466       12.5445237649        2.7745298000
  C        26.3327775630        9.6621334044        5.1683495011
  C        26.3210894334        9.6873471474        6.5894195171
  C        26.8301479229       10.7975453010        7.3353470717
  C        32.1813300610       21.2410032696        2.1505621921
  C        32.7743714562       22.4078882161        2.8681223450
  C        32.0299638208       23.0796245741        3.8497109936
  C        32.6011296688       24.1175556141        4.5790040361
  C        33.9330293335       24.5118093186        4.3474944446
  C        34.6599943644       23.8588378414        3.3341948146
  C        34.0910847363       22.8152765492        2.6068411160
  C        34.5627444375       25.5855898921        5.1487656387
  C        34.5554026993       25.5555007232        6.5705414239
  C        34.0476029296       24.4396889820        7.3086984155
  C        25.7061818603        8.6119171863        7.3078116312
  C        25.6943154952        8.6124946546        4.4945896478
  C        32.1040410550       21.2269400518       13.8780997422
  C        32.6922681293       22.3809828035       13.1373564287
  C        31.9583341538       23.0354457022       12.1362929954
  C        32.5381987090       24.0646552408       11.3984386397
  C        33.8650633476       24.4686019931       11.6439480192
  C        34.5814219770       23.8275528615       12.6727908335
  C        34.0065837427       22.7927920610       13.4057429538
  C        34.5058704900       25.5486901408       10.8588940406
  C        34.5254875305       25.5372308677        9.4369427749
  C        34.0321917134       24.4311203927        8.6754706890
  C        40.6234400830       17.1564539188        8.7609080889
  C        40.5998237507       17.1360903767       11.5701575077
  C        28.7452393065       14.0560749675       13.8365973225
  C        28.1332673778       12.9084218202       13.0962298802
  C        28.8729985770       12.2088107858       12.1285898869
  C        28.2892120989       11.1606051697       11.4205593694
  C        26.9515964635       10.7837546001       11.6551369223
  C        26.2281008518       11.4719083225       12.6480132644
  C        26.8081998055       12.5217247321       13.3569946798
  C        26.3109651783        9.6953579899       10.8780941610
  C        26.3111714703        9.7057479735        9.4561423620
  C        26.8231378249       10.8078705392        8.7013344093
  C        18.1354181281        3.1808661574        2.3222437127
  C        17.4060199767        4.2781644625        3.0208174036
  C        16.3904152628        3.9997740671        3.9484378983
  C        15.7426764604        5.0397403822        4.6119682493
  C        16.0944314571        6.3834753068        4.3721770442
  C        17.0836467903        6.6530171377        3.4082469214
  C        17.7327515517        5.6156943746        2.7431659384
  C        15.4701613408        7.4911932597        5.1352342726
  C        15.4855296736        7.4905600876        6.5569433342
  C        16.1871513784        6.4970029828        7.3101255732
  C        42.9459121628       31.8594754523        2.0779928107
  C        43.6462578551       30.7718617235        2.8219483498
  C        44.5920649746       31.0931565276        3.8077716197
  C        45.1977803438       30.0875903281        4.5553957676
  C        44.8710555912       28.7345532596        4.3407667049
  C        43.9448959823       28.4202387567        3.3278585298
  C        43.3360662104       29.4254010332        2.5798561522
  C        45.4887247584       27.6553022236        5.1439618077
  C        45.4930459023       27.6810211949        6.5656514747
  C        44.8059957671       28.6891046969        7.3122573395
  C        14.8566661614        8.5631182066        7.2693029723
  C        14.8747544291        8.5628952932        4.4566542047
  C        42.9464004212       31.9614142102       13.8038550252
  C        43.6915393493       30.8853412823       13.0903018343
  C        44.6565019912       31.1912635892       12.1183554681
  C        45.2780246892       30.1716899860       11.4006248153
  C        44.9539031647       28.8213890245       11.6379355365
  C        44.0199467882       28.5236919231       12.6482605908
  C        43.3916845652       29.5404505948       13.3604409583
  C        45.5630413220       27.7240419272       10.8526829127
  C        45.5335686727       27.7174841573        9.4313850723
  C        44.8272470949       28.7077191216        8.6784407749
  C        35.1331714281       26.6292930394        8.7329499147
  C        35.1140288361       26.6083326300       11.5425644923
  C        18.1486052044        3.2468897590       13.7015976477
  C        17.4299202465        4.3437933719       12.9923442129
  C        16.4149112344        4.0524894936       12.0685782795
  C        15.7665771046        5.0830796092       11.3931340854
  C        16.1210113983        6.4283367486       11.6160448410
  C        17.1121010576        6.7117727893       12.5735909730
  C        17.7597818219        5.6828832526       13.2533931393
  C        15.4905247431        7.5240331928       10.8435846088
  C        15.4966082506        7.5075301437        9.4224429564
  C        16.1933449155        6.5058151773        8.6757311476
  H        10.6725471645       12.4663364756       11.8989552939
  H        11.6946524358       10.5514764619       10.6570745422
  H        15.3911351016       11.1676641010       12.7679768336
  H        14.3507023720       13.0705609969       14.0132368609
  H        13.3760625445       11.6311209057        9.1961734378
  H        50.3229086681       22.7487697404       11.9819819403
  H        49.3196901269       24.6232091637       10.6759639106
  H        45.6418482642       24.1606018328       12.8580707067
  H        46.6627661467       22.2897757010       14.1662964432
  H        47.6298187474       23.5758995234        9.2410465979
  H        14.8716696030        8.5880224598       12.6034423265
  H        50.2872691731       22.7030441558        4.0651511106
  H        49.2691952887       24.5758915960        5.3651927514
  H        45.6102145737       24.1086278060        3.1516360166
  H        46.6523547674       22.2533964801        1.8374076666
  H        47.6077966626       23.5518581897        6.8019280547
  H        40.6650125479       17.1506575415        3.4305033719
  H        48.6868978170       14.0948867715       15.7948639206
  H        10.6812682653       12.4667157347        4.0984320357
  H        11.6894512858       10.5247754381        5.3021672000
  H        15.3932633147       11.1585110238        3.2103793325
  H        14.3647607910       13.0870056540        1.9950563803
  H        13.3756954153       11.6220589575        6.7581711837
  H        47.9301511204       14.2179257024        1.7159527394
  H        47.7799876092       14.3732221631       14.4898222041
  H        49.0838827577       18.5526432472        2.8724997244
  H        10.4158194559       14.1343068045        0.0037492575
  H        24.4839796022        3.0329629100       11.9095691584
  H        25.6212105313        4.8936105187       10.6833802023
  H        23.2391378145        7.7564454867       12.8351297383
  H        22.1209633501        5.8859822082       14.0633707322
  H        23.8124776303        5.7969423320        9.2539025399
  H        36.3783835207       32.1881021024       11.9598852956
  H        35.2531673542       30.3632262089       10.6811293403
  H        37.5067086498       27.4394557385       12.8888354375
  H        38.6127176280       29.2769138058       14.1759458638
  H        37.0257499612       29.4480774428        9.2704776558
  H        25.7230840963        8.6201409941       12.6428219709
  H        36.4596015558       32.2413015474        4.1205902772
  H        35.3483405333       30.4234048925        5.4161675566
  H        37.5242878872       27.4870925198        3.1465529673
  H        38.6106530172       29.3165576877        1.8386746401
  H        37.0466944823       29.4668568089        6.8326389133
  H        46.1089539986       26.5873494711        3.3906307035
  H        44.6681157228       35.1160497923       15.8088310951
  H        24.4424335623        3.0392663455        4.0871321335
  H        25.5794999594        4.8767856026        5.3350306590
  H        23.1764930615        7.7687974181        3.2473386411
  H        22.0512894276        5.9191714688        1.9991722634
  H        23.7997447610        5.7948463531        6.8153194560
  H        44.9533223755       34.3899901682        1.7000322548
  H        44.9012303695       34.2066439311       14.4854437842
  H        40.6655213048       33.2086377141        2.8580741746
  H        23.1506401365        1.9575710509        0.0101272181
  H        25.7434563670       19.7583026356       12.0442225637
  H        23.5866798493       19.7879063931       10.7864550785
  H        22.4129529651       16.1331439795       12.7247509041
  H        24.5856157703       16.1012092506       13.9618025158
  H        23.7352246857       17.7374903007        9.2349671476
  H        35.1147339827       15.5223295570       11.8977128620
  H        37.2483483126       15.4786362464       10.6079647216
  H        38.7124247325       18.7863106871       12.9370833664
  H        36.5761349152       18.8025822001       14.2393852315
  H        37.2340088677       17.4697562845        9.2381275834
  H        20.3616147995       17.9628749749       12.6628274680
  H        35.2067298887       15.4859167890        4.0972322732
  H        37.3384811722       15.4520899686        5.4003338027
  H        38.7457350548       18.8473555416        3.1652677155
  H        36.6081521878       18.8627873481        1.8620917982
  H        37.2548106334       17.4737122570        6.7957441952
  H        35.1478151874       26.6824252659        3.4015174035
  H        28.5159722554       21.0788475444       15.9507427959
  H        25.7414842485       19.6662538611        4.1218895497
  H        23.5564967384       19.7325832759        5.3366101112
  H        22.3117036176       16.1712430345        3.2726883911
  H        24.4961947520       16.1279598542        2.0519608397
  H        23.7110688207       17.7239919377        6.7997472480
  H        28.9983012495       21.7239153681        1.7667141420
  H        29.1565443970       21.7445452096       14.6012981965
  H        32.1400725439       18.5540175911        2.9702003321
  H        27.4115310643       19.0802675118        0.0925070210
  H        14.8468673008       19.6488154003        4.1452110921
  H        17.0093971746       19.6990352390        5.3879285953
  H        18.3063789285       16.1940201445        3.2591320744
  H        16.1394064615       16.1594004598        2.0164136883
  H        16.9257770585       17.6975140041        6.8519145770
  H        46.0926538065       15.4581075707        4.0869269791
  H        43.9705643427       15.4230104784        5.4020628094
  H        42.5713643051       18.8522668511        3.2142159770
  H        44.6930488754       18.8621160126        1.8890265253
  H        44.0356797595       17.3674146087        6.8540377891
  H        20.2921337010       17.9306089436        3.4252244915
  H        46.0370349446       15.3915057022       12.0272424498
  H        43.9042375663       15.3397777547       10.7328230054
  H        42.5187306107       18.7928041148       12.8905211842
  H        44.6583303896       18.8319375570       14.1845729849
  H        44.0149516537       17.3357104509        9.2938046527
  H        46.1988133126       26.6823943374       12.6182069591
  H        52.7410038420       21.0625647897        0.1997998587
  H        14.8816644083       19.6749406130       11.8928131743
  H        17.0822294778       19.7486990842       10.7133984473
  H        18.3350900818       16.2265871070       12.8399581228
  H        16.1366340723       16.1772218679       14.0291383225
  H        16.9469919026       17.7099037193        9.2893267659
  H        52.3219090699       21.6730342752       14.2893051574
  H        52.0127562879       21.7016626174        1.5007486700
  H        49.0669907712       18.6076659122       13.1991665309
  H        13.2473974086       19.0164786800       15.9720933570
  H        29.9730249183       12.4377151484        4.1905276233
  H        28.9101418516       10.5139152107        5.3814260229
  H        25.2516944842       11.2105243537        3.2311950688
  H        26.3308743778       13.1282367955        2.0413769110
  H        27.1996704269       11.6636065780        6.7944094241
  H        31.0075345637       22.7607452415        4.0360284356
  H        32.0195575603       24.6372370404        5.3371919486
  H        35.6910301104       24.1539335622        3.1502665090
  H        34.6580620522       22.2848810981        1.8451955343
  H        33.6928402754       23.5692669134        6.7639802780
  H        25.7232358472        8.5945832049        3.4065317866
  H        30.9368370550       22.7157077009       11.9428991277
  H        31.9634314341       24.5725815962       10.6271439501
  H        35.6088496892       24.1283447360       12.8670489103
  H        34.5650600590       22.2740535481       14.1814180200
  H        33.6663147588       23.5538403976        9.2019839982
  H        40.5908247281       17.0840737862       12.6572061997
  H        32.5151767627       14.1515309196        0.2521314164
  H        29.9055224773       12.5018563508       11.9506296164
  H        28.8701366348       10.6146243493       10.6803689583
  H        25.1928771705       11.1936675591       12.8348567484
  H        26.2480592117       13.0682300104       14.1123356214
  H        27.1869577516       11.6827752749        9.2324063373
  H        33.3046959606       14.2120426473       14.4430867755
  H        33.4120269178       14.4089340145        1.6023359219
  H        32.1618283440       18.5258918331       13.1882553168
  H        30.2302190548       14.1943623542        0.0818507769
  H        16.1184699429        2.9632479554        4.1349007183
  H        14.9532858309        4.8202967958        5.3276753339
  H        17.3658700599        7.6859233228        3.2149934994
  H        18.5146189570        5.8183228546        2.0151282029
  H        16.7536030258        5.7395885478        6.7766245391
  H        44.8285694254       32.1402149319        3.9817871816
  H        45.9378271042       30.3412868384        5.3111860410
  H        43.6818350010       27.3782139723        3.1580364480
  H        42.5991568959       29.1900345613        1.8154837870
  H        44.2305540596       29.4368023968        6.7739484017
  H        14.8508351626        8.5460169631        3.3684397720
  H        44.9003076781       32.2339309307       11.9271668556
  H        46.0251870462       30.4128787947       10.6476283744
  H        43.7625640047       27.4839968028       12.8394410321
  H        42.6448049131       29.3176034780       14.1184935757
  H        44.2686526986       29.4705464686        9.2130212960
  H        35.0690545112       26.6218643094       12.6299099444
  H        36.6050050790       35.1339656955        0.1857679303
  H        16.1440214534        3.0128812351       11.8987234796
  H        14.9743903723        4.8561598560       10.6829179036
  H        17.3952849867        7.7472864854       12.7507229257
  H        18.5423977087        5.8933137149       13.9784461795
  H        16.7647017024        5.7555228453        9.2141804800
  H        36.2786188878       34.4823623103       14.2682252255
  H        36.3806235751       34.2092595452        1.5049991407
  H        40.5797883920       33.2021208891       13.1487910834
  H        17.4708198533        1.9470454704       15.9691024674
  H        28.8216372423       18.8872812023        4.3946675825
  H        28.8503465215       18.6823430291       11.7415554224
  H        31.9611466218       15.8424652048       11.6065452789
  H        31.3996552138       15.4877461418        4.4813910526
  H        28.5111803182       17.2960877851        6.8994774679
  H        29.9284240852       14.9329199347        6.7782730895
  H        30.6614834989       20.1422526314       10.1212395838
  H        33.1315517616       17.5097424300        9.3585120182
  H        26.4521292347       17.7747382439       10.7300737978
  H        18.8531784105        0.8689693593        4.3403353399
  H        40.5277917315       35.2291265392       11.9470258377
  H        42.3236992570       34.4184575002       11.5858805294
  H        22.0879490254        0.6919631108        4.3567611840
  H        11.5968827145       18.7130890886        4.3876309064
  H        52.2646755964       18.4309756846       11.6719977699
  H        49.2551155005       16.4771574590       11.5794813067
  H        10.1501178079       15.7981851712        4.2979693665
  H        50.8497852087       17.6923216854       11.9492624602
  H        10.0460416077       17.3944319763        4.0571166852
  H        20.2142369280        0.0021538205        4.0472354960
  H        39.1834732137       36.1243031464       11.6812014589
 Ni        30.9789833701       17.7994184700       10.6607281451
 Ni        31.1173752711       16.5436943922        8.3260650395
 Ni        30.0547073253       18.9671705692        7.9932973366
 Ni        30.3929743874       17.4005201477        5.3325870976
  O        10.6499404260       14.3651111110       13.4807041558
  O        12.6132040093       14.6575457743       14.5787866210
  O        49.1481686848       16.8459304487       15.9845982432
  O        50.3502704108       20.9358789904       13.6430003562
  O        48.3485759176       20.5934071578       14.6608014466
  O        11.0516516533       17.0538781316       14.4955210312
  O        50.3210938680       20.8816404082        2.4118963622
  O        48.3468008064       20.5868386268        1.3322416026
  O        49.5438029309       18.2484863576        2.0733941358
  O        12.3590443317       18.6245129853        0.0048007736
  O        48.6932506921       14.1485759635       14.7461675391
  O         8.2098762943       14.2103199134        1.3276293081
  O        10.7353677712       14.5067516135        2.6694597575
  O        12.5718303279       14.5828311272        1.3335955289
  O        22.8447962823        2.0437292242       13.4818253159
  O        21.6056688709        3.5926050425       14.5844351296
  O        42.0580800698       34.1373014512       15.9739063383
  O        37.9818626590       33.1384942500       13.5676150787
  O        39.2181181771       31.5764355198       14.6616220274
  O        20.3084433567        1.0396676958       14.4969858149
  O        38.0247662869       33.1858470178        2.4202432956
  O        39.2191449589       31.5838207419        1.3315716516
  O        40.6522808328       33.7692887087        2.0654165667
  O        18.2555892179        1.3759938641        0.0019639207
  O        44.6221930445       35.1005536123       14.7536162532
  O        24.2053777284        0.0000504961        1.3259458584
  O        22.7533522246        2.0582158886        2.5891784356
  O        21.6249456391        3.5967469282        1.3486919619
  O        27.4922875519       18.7520767377       13.4891391109
  O        26.7620539682       16.9340236858       14.6494012295
  O        30.6672264807       19.4022276197        0.0692010490
  O        33.5447868129       16.3372630210       13.5819098499
  O        34.2737046920       18.1677746852       14.7275972362
  O        29.5758974238       17.0634509932       14.5719226662
  O        33.6219171239       16.3298703373        2.4150894765
  O        34.3044720172       18.2490079013        1.4095475201
  O        31.6546805224       18.3134186019        2.1646290200
  O        30.3244932709       15.1606627561        0.0839682714
  O        28.5542066256       21.0336769352       14.8862995036
  O        28.5141118108       20.9567618022        1.4171498161
  O        27.4616137004       18.6771033750        2.6675728644
  O        26.6937565295       16.9311788459        1.4184211394
  O        13.1489413610       18.6929540367        2.5926171402
  O        13.9198137144       16.9162839774        1.4104066124
  O        50.5962319630       19.3502545837        0.0255224447
  O        47.6837738149       16.3269583254        2.4222664056
  O        46.9528636117       18.1760728997        1.3289664464
  O        11.0697841445       17.0155001517        1.4948330072
  O        47.6757530347       16.3354945323       13.6480159905
  O        46.9281747310       18.2357607064       14.6600456202
  O        49.5686571413       18.3177187426       13.9770891752
  O        10.3185868831       15.1001725286        0.0021714902
  O        52.6707532987       21.0278900525        1.2469438620
  O        12.1468613368       20.8911485038       14.6680553721
  O        13.1086964464       18.6135179064       13.3203439110
  O        13.9576084384       16.9869919698       14.6601528868
  O        30.0022305492       14.4334490221        2.6704406600
  O        28.0788366849       14.6580532723        1.4903070099
  O        32.1414893633       16.8560588699        0.0761584829
  O        30.9661913491       20.9505820252        2.4175972635
  O        32.9467617747       20.6031462331        1.3452885163
  O        29.5697381878       17.0773626056        1.5843444305
  O        30.8747416563       20.9427744535       13.6552265302
  O        32.8794906710       20.5857410380       14.6616558652
  O        31.6781227954       18.2631766942       13.9874037956
  O        28.2950159301       18.6777569878        0.0787193016
  O        32.4958612183       14.2124976868        1.3309962022
  O        32.4065428241       14.2212782740       14.8142607435
  O        29.9127246405       14.4293490717       13.4925624182
  O        28.0334225529       14.5898166838       14.7545524801
  O        17.8892208621        1.9666359968        2.6679219766
  O        18.9562914106        3.5271470609        1.4130923863
  O        39.1686873044       34.1387878445        0.0023113809
  O        43.2802382250       33.0590042619        2.3367732701
  O        42.0345675507       31.5064685378        1.2467495496
  O        20.3176572148        1.0367103817        1.4854107834
  O        43.2760516393       33.1825003124       13.5698019783
  O        42.0052693320       31.5840724319       14.5779134643
  O        40.5790503876       33.7749633537       13.9308095859
  O        22.3672811890        1.3846978769        0.0030819127
  O        36.6727467727       35.0997682565        1.2384124020
  O        16.4455145577        0.0643096039       14.6632274268
  O        17.9364928301        2.0434010359       13.3212866975
  O        18.9190916637        3.5931334482       14.6609008835
  O        29.7533150111       18.8284689178       12.0783034475
  O        29.7472292571       18.9777289592        4.0872876880
  O        31.2177896564       16.2787553916       12.0644295598
  O        31.3496173654       16.3376903109        4.0050490458
  O        32.4870638098       16.8493010850        9.6662778304
  O        27.1534677532       17.5958034113       10.0784540369
  O        30.5444047503       15.6814746902        6.7355801511
  O        31.5462476624       18.0261941793        6.9224262706
  O        31.1406482990       19.4912157271        9.5776516252
  O        28.8960360325       18.0960497929        6.5009470925
  O        39.4567444709       35.2437722580       11.9968677516
  O        19.1411281302        0.0045050895        3.9956839305
  O        41.9697408643       35.1727734059       12.0821692715
  O        21.6913871803       -0.0692961653        3.9010218029
  O        51.3649939968       18.6142580977       12.0003348357
  O        10.7511420002       18.7472474626        3.9100125312
  O        50.0796375479       16.4128078113       12.0866195386
  O         9.5244132846       16.4831064604        3.9963295139
 Zr         9.2963054749       16.0528000016       14.1773383906
 Zr        49.8358384044       16.0066433947        1.7515143490
 Zr        22.0729937791        0.0293437617       14.1841375697
 Zr        42.4607396153       35.1530363346        1.8060707393
 Zr        29.6076446378       19.1009282110       14.2393063038
 Zr        29.5911314591       19.1837119093        1.8734341193
 Zr        11.0376459774       19.0519954230        1.8327270943
 Zr        11.0434422098       19.1548790038       14.2460699521
 Zr        31.3601406222       16.1019700765        1.8599368108
 Zr        31.3807275327       16.0228861489       14.2530807397
 Zr        18.6008444113       -0.0020607586        1.7684644027
 Zr        18.5062590498       -0.0081037173       14.2086575932
 Zr        12.3014779102       16.3235900854       15.9852596548
 Zr        48.6161208565       18.8332429905        0.0152050593
 Zr        20.3151307804        2.4729457324       15.9857808406
 Zr        40.6430639304       32.6864008032       15.9732040455
 Zr        28.3566558299       16.3506785839        0.0916368837
 Zr        32.6254591533       18.8404116900        0.0560285365
  H        32.4143686086       18.4599183157        6.8871656976
  O        28.5282559712       15.5305572306       10.9930327907
  H        29.3945386054       15.6864820651       11.4454204681
  H        28.1284578575       14.7715801306       11.4490029091
  O        28.1760045868       19.6366749972        8.7423280440
  H        27.7198351315       19.4584575138        7.8959930359
  H        27.8316577864       18.8912205245        9.3350376598
  O        30.2869575469       20.5177556628        6.4950850793
  H        30.1298332706       20.0779056736        5.6104379262
  H        29.6240472266       21.2248873124        6.5529103188
  H        27.6736434088       16.8162479679       10.4385734652
  H        29.9267777763       17.2327220221        9.3713374548
