     583
 i =      124, E =     -4830.5583284961
  C        11.8583490737       14.0537297322       13.7366054414
  C        12.4556719761       12.8904554546       13.0181644940
  C        11.7036783441       12.1714369356       12.0768509599
  C        12.2797797227       11.1090557417       11.3844546819
  C        13.6203612717       10.7392109524       11.6119606866
  C        14.3537907134       11.4428354401       12.5851879256
  C        13.7811911233       12.5080236284       13.2766546932
  C        14.2598845871        9.6485214170       10.8385540533
  C        14.2553423873        9.6563761338        9.4168336671
  C        13.7415527817       10.7581752102        8.6628624645
  C        49.1265432856       21.2332600028       13.8746308291
  C        48.5496578636       22.4011268552       13.1474276403
  C        49.2999472053       23.0690204311       12.1670366249
  C        48.7329815461       24.1081142129       11.4338013646
  C        47.4021604100       24.5090909336       11.6618747688
  C        46.6708318614       23.8595343024       12.6746465179
  C        47.2333428288       22.8146519701       13.4040141097
  C        46.7720278834       25.5868839111       10.8646222926
  C        46.7611833937       25.5574102016        9.4428613699
  C        47.2610939207       24.4422775431        8.6994102931
  C        14.8596724906        8.5702202532        8.7035914748
  C        14.8907254092        8.5966085517       11.5152038244
  C        49.1129397014       21.2033013980        2.1505040036
  C        48.5273667222       22.3645341152        2.8778522065
  C        49.2669523362       23.0260768752        3.8699264184
  C        48.6905634328       24.0606028180        4.6013884270
  C        47.3597675600       24.4564789116        4.3638801829
  C        46.6388404364       23.8105972672        3.3413724043
  C        47.2124708754       22.7746714136        2.6096411262
  C        46.7214513726       25.5316164412        5.1548100000
  C        46.7333800217       25.5281826227        6.5764993706
  C        47.2488165364       24.4289565954        7.3328598683
  C        40.6224157860       17.1258645769        7.3122512010
  C        40.6382416495       17.1315506712        4.5027979782
  C        11.8826932519       14.0865406983        2.2905108446
  C        12.4718789203       12.9104514314        2.9948346441
  C        11.7138332696       12.1766607356        3.9200119436
  C        12.2802104873       11.0940767128        4.5884946429
  C        13.6192887952       10.7208677438        4.3574739430
  C        14.3578343153       11.4370915151        3.3976164932
  C        13.7926565514       12.5184496726        2.7249607590
  C        14.2528404566        9.6240467231        5.1279103196
  C        14.2515911811        9.6439671435        6.5497584409
  C        13.7410205253       10.7526150031        7.2968070470
  C        22.5119650043        3.2447137168       13.7484597092
  C        23.2268945571        4.3515726443       13.0499696242
  C        24.2262682818        4.0735266433       12.1058117566
  C        24.8529851358        5.1143473699       11.4251187268
  C        24.4960406995        6.4555545543       11.6685290961
  C        23.5248089672        6.7253259327       12.6497536695
  C        22.8936030649        5.6861949787       13.3288304080
  C        25.1011251795        7.5624447504       10.8922908880
  C        25.0722270852        7.5544960916        9.4707181603
  C        24.3669104801        6.5556058992        8.7269284299
  C        38.3028435978       31.9299446986       13.8440890416
  C        37.5739154142       30.8404896371       13.1347306723
  C        36.6157100745       31.1438498283       12.1555449966
  C        35.9997756670       30.1230018713       11.4371448661
  C        36.3272795641       28.7741612052       11.6769283836
  C        37.2556401812       28.4782764056       12.6926741976
  C        37.8759087517       29.4978046364       13.4096899790
  C        35.7260124884       27.6820892007       10.8799060756
  C        35.7585108052       27.6964304630        9.4587592005
  C        36.4658145395       28.6979735907        8.7217653263
  C        25.6973403798        8.6217355973        8.7484898282
  C        25.6991246504        8.6382106103       11.5608102924
  C        38.3290530292       31.9621677178        2.1614274689
  C        37.6082575778       30.8889300749        2.9033491730
  C        36.6810825096       31.1972386773        3.9105260355
  C        36.0722067823       30.1783159376        4.6403644191
  C        36.3762052463       28.8259033796        4.3862587920
  C        37.2808132504       28.5275977769        3.3489063080
  C        37.8919396401       29.5429793916        2.6204399268
  C        35.7692528832       27.7265054075        5.1704436630
  C        35.7806673402       27.7192141177        6.5923410418
  C        36.4760857445       28.7091491472        7.3552703847
  C        46.1355735541       26.6209479620        7.2865896014
  C        46.0874502225       26.5798845018        4.4786969032
  C        22.4591443861        3.2554614191        2.2633941384
  C        23.1499185024        4.3648645997        2.9888186173
  C        24.1510345158        4.0797052493        3.9307579509
  C        24.7761723886        5.1104506060        4.6284041690
  C        24.4202352896        6.4556990546        4.4059251856
  C        23.4416597782        6.7342414340        3.4330213113
  C        22.8117391310        5.7036500673        2.7362644728
  C        25.0510340323        7.5543375061        5.1790752874
  C        25.0474109896        7.5490340208        6.6018164531
  C        24.3533018663        6.5541324692        7.3603367537
  C        26.6103295204       17.8676504858       13.7951959246
  C        25.2968918587       17.9294192875       13.0925037114
  C        25.0391821455       18.9167562539       12.1216158888
  C        23.8383838980       18.9170848192       11.4169388840
  C        22.8334365135       17.9590539305       11.6860448198
  C        23.0773570184       17.0175197826       12.7106736819
  C        24.2922716635       16.9910405617       13.3880085365
  C        21.5743902096       17.9271529039       10.9265721440
  C        21.5790281937       17.9574137750        9.4703913031
  C        22.7614886179       17.8198206970        8.7293356182
  C        34.4172932951       17.2245619882       13.8727628759
  C        35.7135690752       17.1614182909       13.1406788855
  C        35.9104596839       16.2097872897       12.1278232587
  C        37.0974974698       16.1912047381       11.4016246333
  C        38.1185409175       17.1255883488       11.6641587807
  C        37.9246214610       18.0552325692       12.7041484705
  C        36.7368030637       18.0772539038       13.4306509025
  C        39.3731589734       17.1369415291       10.8786370520
  C        39.3673031293       17.1532424785        9.4562541035
  C        38.1605157393       17.2757454399        8.6978191700
  C        20.3318995902       17.9990919257        8.7623704373
  C        20.3495009368       17.8706334355       11.6010082254
  C        34.4506282678       17.2372476038        2.1839570976
  C        35.7541114417       17.1352561403        2.9000274987
  C        35.9549702045       16.1694491003        3.8979150435
  C        37.1446105089       16.1532289150        4.6226347118
  C        38.1599794690       17.0949510760        4.3699653738
  C        37.9660805435       18.0304326730        3.3351955946
  C        36.7762300911       18.0558453131        2.6144924855
  C        39.4064811944       17.1208899979        5.1671565780
  C        39.3847417258       17.1436455693        6.5889055011
  C        38.1682452001       17.2674707577        7.3312425725
  C        35.1497731317       26.6403114648        7.2963502232
  C        35.1780321201       26.6565690034        4.4873563731
  C        26.5693290949       17.8328822809        2.3242319518
  C        25.2514243627       17.8902446089        3.0162735497
  C        25.0137956226       18.8560074542        4.0076739241
  C        23.8010269517       18.8801895057        4.6848023969
  C        22.7824229621       17.9471091375        4.3855963684
  C        23.0112161157       17.0197788850        3.3471914366
  C        24.2316648800       16.9850622732        2.6801984779
  C        21.5301257171       17.9157387367        5.1515115455
  C        21.5564638801       17.9462958198        6.6063549265
  C        22.7497524524       17.8114683604        7.3323528364
  C        14.0482583443       17.8343350207        2.2881214671
  C        15.3559780759       17.9038931974        2.9994708320
  C        15.5820389149       18.8556654312        4.0082843361
  C        16.7864675535       18.8718653708        4.7039136300
  C        17.8159652389       17.9498298626        4.4035473900
  C        17.5978710926       17.0370580221        3.3478886067
  C        16.3853674567       17.0059952391        2.6671560850
  C        19.0737448421       17.9185879732        5.1640485421
  C        19.0724695147       17.9486505972        6.6204351855
  C        17.8912999761       17.8109867783        7.3629770513
  C        46.8037795296       17.2175593064        2.1628218830
  C        45.5124716290       17.1531920329        2.9047931944
  C        45.3085037819       16.1793754419        3.8947431829
  C        44.1251629302       16.1598759198        4.6280253897
  C        43.1156829790       17.1138863172        4.3932929331
  C        43.3164433386       18.0659340700        3.3754786818
  C        44.5006356904       18.0898202204        2.6434396049
  C        41.8623255449       17.1259656286        5.1813187595
  C        41.8688920464       17.1357652175        6.6032020498
  C        43.0778093795       17.2373898337        7.3609704324
  C        20.3198732328       17.9939047619        7.3281268140
  C        20.2989764198       17.8564355435        4.4911603443
  C        46.7837134693       17.2329313477       13.8809230793
  C        45.4818132697       17.1315739206       13.1615135859
  C        45.2640110694       16.1398384875       12.1927512209
  C        44.0764101734       16.1172003363       11.4651964609
  C        43.0754324880       17.0830630869       11.6881698089
  C        43.2841241852       18.0446887064       12.6947427292
  C        44.4728141778       18.0739876593       13.4173953936
  C        41.8281721494       17.1082327572       10.8915792102
  C        41.8514433520       17.1257761272        9.4701887651
  C        43.0697563907       17.2297009742        8.7277791836
  C        46.1533551828       26.6374005086        8.7211260524
  C        46.1620632101       26.6559548879       11.5307697517
  C        14.0465576491       17.8362085678       13.7096812179
  C        15.3709459359       17.9199326871       13.0329671485
  C        15.6196566603       18.8859207525       12.0447669819
  C        16.8439659503       18.9138772561       11.3864078805
  C        17.8620576494       17.9839398890       11.6997480782
  C        17.6235032147       17.0625457509       12.7414062001
  C        16.3942257932       17.0250260885       13.3901426011
  C        19.1182372249       17.9395476889       10.9398520202
  C        19.0953552125       17.9585262718        9.4843650986
  C        17.9030663893       17.8146899469        8.7594656616
  C        28.8014840744       14.0866579768        2.3919912637
  C        28.1865004024       12.9163297980        3.0818834752
  C        28.9190741401       12.1564505292        4.0060702920
  C        28.3182626762       11.0831617033        4.6592344025
  C        26.9730157098       10.7451704147        4.4096477288
  C        26.2613716497       11.4852081128        3.4486256017
  C        26.8589935496       12.5600633532        2.7954379090
  C        26.3057359579        9.6650211953        5.1721695522
  C        26.3012831899        9.6900532023        6.5929734400
  C        26.8164357628       10.7992777810        7.3358894107
  C        32.1788581360       21.2443120807        2.1502544544
  C        32.7738329990       22.4104963821        2.8667520118
  C        32.0263795744       23.0872566884        3.8429418247
  C        32.5985664897       24.1246998595        4.5725690577
  C        33.9331927112       24.5131196937        4.3462003445
  C        34.6627559524       23.8550863922        3.3382125664
  C        34.0933828560       22.8118472849        2.6106944661
  C        34.5634742990       25.5868884232        5.1471327395
  C        34.5565617766       25.5572733446        6.5686967958
  C        34.0474486534       24.4423483964        7.3069081427
  C        25.6892973221        8.6152130707        7.3140214121
  C        25.6644642465        8.6163642661        4.5007036069
  C        32.1037559906       21.2315074471       13.8787473030
  C        32.6946979491       22.3830160850       13.1365887405
  C        31.9598700169       23.0411843798       12.1384293662
  C        32.5409183118       24.0692884638       11.3999846015
  C        33.8699211523       24.4687708068       11.6421644053
  C        34.5870883570       23.8241914940       12.6682073723
  C        34.0111012776       22.7904171279       13.4017570124
  C        34.5112608827       25.5484837836       10.8570088993
  C        34.5289367910       25.5380429051        9.4351634013
  C        34.0330654787       24.4333301933        8.6735539066
  C        40.6134416416       17.1257202054        8.7470539432
  C        40.5975008890       17.1308087027       11.5573889062
  C        28.7488263338       14.0645119700       13.8271533895
  C        28.1379988487       12.9203893833       13.0826136902
  C        28.8768895820       12.2180891381       12.1161346552
  C        28.2921699362       11.1669808240       11.4123021541
  C        26.9558645666       10.7889765150       11.6519192117
  C        26.2335292494       11.4804846910       12.6433643839
  C        26.8133727460       12.5337071202       13.3465406124
  C        26.3133953116        9.6978944631       10.8804855798
  C        26.3065508850        9.7080923430        9.4588188294
  C        26.8163040181       10.8094330693        8.7016691470
  C        18.1353212409        3.1808773743        2.3223023146
  C        17.4058677969        4.2780411218        3.0208403220
  C        16.3907248036        3.9995601715        3.9489643341
  C        15.7428969433        5.0394502076        4.6124983182
  C        16.0940707976        6.3832733183        4.3722523182
  C        17.0826725002        6.6528985450        3.4076911146
  C        17.7318731760        5.6156466429        2.7426265651
  C        15.4697153923        7.4909210625        5.1352963506
  C        15.4851851663        7.4903157263        6.5570072654
  C        16.1870540338        6.4969556645        7.3102278936
  C        42.9459853022       31.8593638129        2.0780165652
  C        43.6462979221       30.7718296826        2.8218625543
  C        44.5920109660       31.0931168899        3.8078090319
  C        45.1976509303       30.0875348122        4.5554331848
  C        44.8710178551       28.7344747711        4.3407309584
  C        43.9450467977       28.4201890518        3.3276208095
  C        43.3362862568       29.4253384964        2.5795766297
  C        45.4885526870       27.6552009733        5.1439538575
  C        45.4929613844       27.6810954105        6.5656321509
  C        44.8060541366       28.6892688210        7.3122462079
  C        14.8559578148        8.5626731168        7.2693506315
  C        14.8741599232        8.5625470527        4.4566826998
  C        42.9465393671       31.9613818973       13.8038803012
  C        43.6917333752       30.8854349633       13.0904993866
  C        44.6562636060       31.1913675852       12.1180977876
  C        45.2777383714       30.1718005789       11.4003623269
  C        44.9540081369       28.8214439854       11.6379954260
  C        44.0206031352       28.5237640609       12.6488620954
  C        43.3923796713       29.5404969043       13.3610798032
  C        45.5630164862       27.7241006679       10.8527128508
  C        45.5335022242       27.7176160560        9.4314168870
  C        44.8273334742       28.7079284165        8.6784278530
  C        35.1370923071       26.6295255206        8.7309504876
  C        35.1209653389       26.6072130495       11.5405498225
  C        18.1483969024        3.2469280813       13.7015485033
  C        17.4295312428        4.3437046280       12.9924671130
  C        16.4149815454        4.0522847434       12.0682111886
  C        15.7665538990        5.0828305173       11.3928074836
  C        16.1203770265        6.4281901349       11.6161772377
  C        17.1108605891        6.7116773582       12.5743551405
  C        17.7586648661        5.6828674451       13.2541322981
  C        15.4899153848        7.5238332615       10.8436647294
  C        15.4961096900        7.5072664987        9.4225235134
  C        16.1932217176        6.5057909453        8.6758390170
  H        10.6714879451       12.4656073163       11.9001547034
  H        11.6931579183       10.5504666635       10.6582523194
  H        15.3907987420       11.1680472282       12.7667855693
  H        14.3507383903       13.0715946644       14.0117674088
  H        13.3736116666       11.6298801602        9.1962307946
  H        50.3228824567       22.7494108248       11.9828232518
  H        49.3195894006       24.6238320581       10.6766255710
  H        45.6410127034       24.1595886253       12.8571623919
  H        46.6620399922       22.2887427270       14.1654368581
  H        47.6294335368       23.5758475274        9.2411543297
  H        14.8706986701        8.5877611859       12.6035079596
  H        50.2873291190       22.7038593804        4.0641446805
  H        49.2691400630       24.5767087687        5.3643150229
  H        45.6090078781       24.1068943770        3.1531506395
  H        46.6512418853       22.2515954064        1.8389867416
  H        47.6074005614       23.5517790674        6.8019159707
  H        40.6443296651       17.0894194102        3.4153094963
  H        48.6866303332       14.0950225636       15.7948269262
  H        10.6801141477       12.4653722912        4.0966547728
  H        11.6879451059       10.5231814641        5.3004113954
  H        15.3935043474       11.1595805470        3.2124337299
  H        14.3653768501       13.0887400419        1.9974446597
  H        13.3732801434       11.6207680594        6.7580313108
  H        47.9300562533       14.2177857094        1.7159538609
  H        47.7797239354       14.3726399128       14.4895566018
  H        49.0818935136       18.5517711217        2.8718706829
  H        10.4148696022       14.1342756418        0.0038801878
  H        24.4895198745        3.0354187373       11.9153537025
  H        25.6278416250        4.8981442794       10.6927787569
  H        23.2411221425        7.7576204772       12.8439628053
  H        22.1214335532        5.8850049085       14.0680150923
  H        23.8054710848        5.8004315406        9.2692279635
  H        36.3788557665       32.1869313929       11.9596381671
  H        35.2564210440       30.3610131537       10.6795029386
  H        37.5156699108       27.4392979938       12.8843349169
  H        38.6186389842       29.2778146461       14.1728293232
  H        37.0318974397       29.4468706562        9.2679723370
  H        25.7336235268        8.6232153489       12.6487025448
  H        36.4586451482       32.2413426525        4.1187771613
  H        35.3478336537       30.4225570000        5.4142051690
  H        37.5272412774       27.4874558609        3.1461544150
  H        38.6130605322       29.3178222001        1.8385173598
  H        37.0509665997       29.4662592670        6.8297997184
  H        46.1085543351       26.5869634601        3.3906524211
  H        44.6682140460       35.1160270192       15.8087962276
  H        24.4302159148        3.0417793241        4.0974600163
  H        25.5567671238        4.8825568431        5.3511196346
  H        23.1552341323        7.7683877955        3.2527345436
  H        22.0403985346        5.9152724065        1.9993508319
  H        23.7804689641        5.7984680989        6.8305665011
  H        44.9538355118       34.3903875141        1.7002007524
  H        44.9017663674       34.2068661921       14.4852845507
  H        40.6659922146       33.2086339288        2.8580375193
  H        23.1506331836        1.9573008405        0.0107184764
  H        25.7921695158       19.6819829571       11.9394143684
  H        23.6527890598       19.6798561046       10.6637786951
  H        22.3171057908       16.2705556292       12.9301281620
  H        24.4957583117       16.2371415682       14.1451118302
  H        23.7061389746       17.6781457966        9.2467460610
  H        35.1172110538       15.4976662596       11.9143584392
  H        37.2473488388       15.4452647424       10.6242748935
  H        38.7045562610       18.7846433032       12.9126720659
  H        36.5717139035       18.8101089311       14.2170180895
  H        37.2207588594       17.4034583671        9.2271176582
  H        20.3549095769       17.8761508785       12.6898057955
  H        35.1679990758       15.4561099236        4.1309183477
  H        37.2909972290       15.4046360578        5.3981595944
  H        38.7430816411       18.7646126821        3.1327074432
  H        36.6046259449       18.7991642515        1.8397821607
  H        37.2344038846       17.3838815246        6.7886962689
  H        35.1490005755       26.6831486326        3.3997223868
  H        28.5135695966       21.0847497423       15.9696006226
  H        25.7968852539       19.5773587789        4.2292531837
  H        23.6190812898       19.6326737531        5.4486910529
  H        22.2379116442       16.2924224727        3.1089752981
  H        24.4274053500       16.2478584208        1.9051693136
  H        23.6840843584       17.6618710983        6.8000825570
  H        28.9913964235       21.7257412466        1.7730309178
  H        29.1419140916       21.7561399146       14.6067068657
  H        32.1375830625       18.5914787293        2.9541131193
  H        27.4059124771       19.0777763675        0.0941699734
  H        14.7988533550       19.5762164117        4.2329512413
  H        16.9527209559       19.6149918028        5.4805060625
  H        18.3757504644       16.3162438713        3.1047439806
  H        16.2032500459       16.2771712515        1.8808895416
  H        16.9488146226       17.6622363287        6.8447961564
  H        46.0943638260       15.4516291460        4.0828283502
  H        43.9677335875       15.3975844142        5.3878895495
  H        42.5446055740       18.8098478868        3.1893039224
  H        44.6719331815       18.8397926490        1.8748042591
  H        44.0189228209       17.3522064001        6.8308034401
  H        20.2946625444       17.8613274292        3.4024822585
  H        46.0407799930       15.4003298993       12.0117880409
  H        43.9112878364       15.3469199817       10.7149958339
  H        42.5172975143       18.7952999998       12.8745884438
  H        44.6534863193       18.8359113555       14.1716532623
  H        44.0046487675       17.3372648791        9.2701423811
  H        46.1986772953       26.6822677076       12.6182278571
  H        52.7406455766       21.0627068874        0.1997129603
  H        14.8396805898       19.6062788600       11.8083951641
  H        17.0323765469       19.6647330186       10.6224384941
  H        18.3952004539       16.3382707412       12.9937474957
  H        16.1914215117       16.2901539531       14.1653729013
  H        16.9689855553       17.6677535870        9.2928680411
  H        52.3221104809       21.6730970240       14.2891978200
  H        52.0125811989       21.7017447922        1.5006461524
  H        49.0661178919       18.6075272485       13.1993142442
  H        13.2463527394       19.0179942358       15.9726790737
  H        29.9577562659       12.4173994202        4.1972702260
  H        28.8870889515       10.4929055235        5.3744947932
  H        25.2216301167       11.2334112936        3.2500730111
  H        26.3083984567       13.1539569283        2.0699612601
  H        27.1864188196       11.6639324876        6.7931713721
  H        31.0014007798       22.7732002552        4.0250164631
  H        32.0148264460       24.6488874766        5.3260903957
  H        35.6958022071       24.1457899040        3.1586609839
  H        34.6625217044       22.2772360657        1.8536533050
  H        33.6911365517       23.5738117311        6.7605188264
  H        25.6892272773        8.5980440280        3.4125704763
  H        30.9364630199       22.7253971251       11.9487386281
  H        31.9653490566       24.5807492221       10.6315594859
  H        35.6159033312       24.1217299254       12.8601428253
  H        34.5702820679       22.2697259320       14.1756103640
  H        33.6662206504       23.5574016885        9.2012748530
  H        40.5912858402       17.0884795419       12.6449100013
  H        32.5297229073       14.1507811009        0.2536044435
  H        29.9107679604       12.5061458783       11.9374517800
  H        28.8726563041       10.6188358498       10.6733392813
  H        25.1991150781       11.2014984686       12.8335613771
  H        26.2539003554       13.0825199883       14.1005418334
  H        27.1854797514       11.6830247656        9.2308930675
  H        33.2997942159       14.2229966176       14.4310567634
  H        33.4032069574       14.3523912305        1.6404208382
  H        32.1310774582       18.5626408922       13.1787156897
  H        30.2442973340       14.1910508938        0.0668515731
  H        16.1191199421        2.9630057064        4.1357643646
  H        14.9538343898        4.8199298055        5.3285469857
  H        17.3642541919        7.6858784464        3.2138944962
  H        18.5132055925        5.8183616653        2.0140426125
  H        16.7537496883        5.7396876525        6.7767715023
  H        44.8285074949       32.1401554165        3.9819237624
  H        45.9376538562       30.3411952993        5.3112708643
  H        43.6821850002       27.3781449174        3.1576071701
  H        42.5995793444       29.1899253398        1.8150273057
  H        44.2306979881       29.4370432982        6.7739607295
  H        14.8501827870        8.5457058263        3.3684646872
  H        44.8998070579       32.2340334262       11.9265995914
  H        46.0246170528       30.4129971165       10.6470919513
  H        43.7636916565       27.4840281245       12.8404595822
  H        42.6459596142       29.3175694902       14.1195575879
  H        44.2688115782       29.4708360738        9.2129579072
  H        35.0773318920       26.6204704704       12.6279472672
  H        36.6048803839       35.1339846872        0.1857445307
  H        16.1444493080        3.0126448244       11.8979808059
  H        14.9746928247        4.8558274956       10.6822508204
  H        17.3933981909        7.7472713024       12.7520511798
  H        18.5407655753        5.8933993247       13.9797056199
  H        16.7647448563        5.7556224674        9.2142821931
  H        36.2779655515       34.4829306192       14.2679448207
  H        36.3800108065       34.2095470593        1.5050542868
  H        40.5804716385       33.2023775474       13.1486625242
  H        17.4705592104        1.9471423401       15.9690041968
  H        28.9622007043       19.1112590119        4.4708738152
  H        28.7922069157       18.7338385551       11.7775704128
  H        31.8006012550       15.8846474412       11.5124954075
  H        30.9655173511       15.3368635814        4.2792506490
  H        28.3305264379       17.4155280523        6.6481863173
  H        29.6252100270       15.0735729518        7.0132858263
  H        30.3611979071       20.0741378514        9.9021511966
  H        32.8611336025       17.6926451938        9.2414435442
  H        26.4739869889       17.7569429489       10.7456316887
  H        18.8525993170        0.8687340532        4.3402663682
  H        40.5278022455       35.2292145433       11.9470381868
  H        42.3239001601       34.4186947595       11.5858155622
  H        22.0879568093        0.6916538540        4.3569430138
  H        11.5978961326       18.7105043067        4.3857423746
  H        52.2655541364       18.4278639928       11.6760114175
  H        49.2545384339       16.4769190904       11.5799641153
  H        10.1505197010       15.7982282318        4.2972642276
  H        50.8487358944       17.6925824429       11.9495631452
  H        10.0457088434       17.3946159259        4.0569610583
  H        20.2137124093        0.0020352101        4.0472668435
  H        39.1834663766       36.1244508891       11.6813859789
 Ni        30.9408004636       17.9282734773       10.7487014631
 Ni        31.1145729411       16.4538099976        8.3199942197
 Ni        30.0129775381       18.7435237451        7.8304984459
 Ni        30.3121214800       17.3985787517        5.1687126343
  O        10.6497323633       14.3651903677       13.4806126707
  O        12.6130652787       14.6573886398       14.5787967219
  O        49.1477168224       16.8459657334       15.9846004985
  O        50.3500959266       20.9361765739       13.6429986079
  O        48.3484848921       20.5933730094       14.6608587083
  O        11.0509900366       17.0540001323       14.4955709163
  O        50.3208415724       20.8817492491        2.4120185264
  O        48.3466916819       20.5867700990        1.3321782956
  O        49.5435294476       18.2485126493        2.0734153512
  O        12.3586046714       18.6246630411        0.0048480437
  O        48.6931341127       14.1486802727       14.7461146012
  O         8.2098221646       14.2103262951        1.3276359733
  O        10.7353060403       14.5067126875        2.6695606005
  O        12.5717312181       14.5826454071        1.3336513379
  O        22.8448698706        2.0439798514       13.4818413743
  O        21.6054603060        3.5925288810       14.5846494172
  O        42.0581656227       34.1372649041       15.9738858328
  O        37.9819158272       33.1383271196       13.5675593280
  O        39.2182677164       31.5764106490       14.6617720243
  O        20.3084062834        1.0395599428       14.4968851876
  O        38.0248222099       33.1860119810        2.4201480852
  O        39.2193000264       31.5839657346        1.3313661917
  O        40.6522662821       33.7692694487        2.0653683299
  O        18.2553226028        1.3760708471        0.0018986333
  O        44.6222006778       35.1005761005       14.7535987583
  O        24.2053587471        0.0000659285        1.3259401350
  O        22.7529744324        2.0579252558        2.5890576139
  O        21.6242805767        3.5960532800        1.3474609459
  O        27.4906099805       18.7517452580       13.4901907746
  O        26.7631464687       16.9332953752       14.6525302299
  O        30.6678803488       19.4050754189        0.0693319479
  O        33.5342931648       16.3408250574       13.5778450333
  O        34.2709306682       18.1679822432       14.7234764902
  O        29.5746023851       17.0665790457       14.5723355024
  O        33.5615639894       16.3428617009        2.4170570167
  O        34.3005031960       18.2432237340        1.4091402280
  O        31.6545560656       18.3098504185        2.1608404163
  O        30.3260233838       15.1587000041        0.0849514595
  O        28.5530780670       21.0360776779       14.8964788588
  O        28.5125582953       20.9588126436        1.4155341668
  O        27.4584168662       18.6794383408        2.6634702348
  O        26.6946716217       16.9295253248        1.4163725674
  O        13.1468521414       18.6934991102        2.5927482674
  O        13.9192025207       16.9166144739        1.4089114262
  O        50.5956419242       19.3501903069        0.0255789262
  O        47.6833407295       16.3270781560        2.4223212322
  O        46.9516328482       18.1757466312        1.3297300931
  O        11.0690865707       17.0156970781        1.4948582394
  O        47.6742572075       16.3360819406       13.6472540054
  O        46.9261357946       18.2359843329       14.6587777829
  O        49.5681887109       18.3177687146       13.9770535972
  O        10.3183940797       15.1002064043        0.0022271987
  O        52.6706133239       21.0280165698        1.2468749570
  O        12.1466988293       20.8911217227       14.6681378970
  O        13.1074955232       18.6135203870       13.3202558286
  O        13.9563751612       16.9870016760       14.6624149916
  O        29.9884440587       14.4351481637        2.7273491351
  O        28.0871937323       14.6534171067        1.4969022203
  O        32.1381792789       16.8615398321        0.0617029205
  O        30.9661517740       20.9530037254        2.4147846861
  O        32.9471736901       20.6032569640        1.3458212824
  O        29.5699667026       17.0734315489        1.5804340406
  O        30.8748071822       20.9487800478       13.6569252993
  O        32.8800178877       20.5890840109       14.6622774401
  O        31.6517577546       18.3070205541       13.9837530795
  O        28.2906307178       18.6778133135        0.0770881027
  O        32.4910073955       14.2095381539        1.3280836545
  O        32.4040246126       14.2288080186       14.8083978656
  O        29.9200903432       14.4386122176       13.4879669985
  O        28.0388321077       14.5888413300       14.7510618164
  O        17.8892241361        1.9665598694        2.6679088662
  O        18.9562096994        3.5270968232        1.4130898154
  O        39.1687243355       34.1388433190        0.0022979655
  O        43.2802030015       33.0589845023        2.3367602901
  O        42.0345187326       31.5065045675        1.2467197907
  O        20.3176097312        1.0366399197        1.4854227066
  O        43.2760153667       33.1825773042       13.5698482445
  O        42.0052509596       31.5841276150       14.5779102156
  O        40.5791684717       33.7750966354       13.9307620959
  O        22.3672280117        1.3845166418        0.0029877926
  O        36.6727342844       35.0998010603        1.2383678108
  O        16.4455163644        0.0643107936       14.6632068924
  O        17.9364638541        2.0433768158       13.3212753070
  O        18.9190363327        3.5931067303       14.6608273246
  O        29.7036363575       18.9040479503       12.0797878305
  O        29.7898406392       18.9061887883        3.9919580177
  O        31.1406906869       16.4100725984       12.0055577105
  O        31.3451859724       16.1973577986        4.0074634420
  O        32.3172484457       16.9944674971        9.6502293477
  O        27.1619989211       17.5862213039       10.0768598518
  O        30.3622929080       15.6778205659        6.8271127827
  O        31.5165746666       17.9420306410        6.8207249278
  O        30.8773724644       19.3552859993        9.4928064786
  O        28.8526653753       18.1722837927        6.3306517988
  O        39.4567660830       35.2438536460       11.9968505210
  O        19.1406672904        0.0042480454        3.9957244542
  O        41.9697200792       35.1728332851       12.0822196900
  O        21.6911945181       -0.0693255684        3.9009351721
  O        51.3650041499       18.6141155558       12.0002661507
  O        10.7510342074       18.7472976010        3.9103772821
  O        50.0794226961       16.4129097782       12.0866090234
  O         9.5243783098       16.4830657267        3.9963393031
 Zr         9.2955140846       16.0529905068       14.1774113912
 Zr        49.8351854179       16.0068538128        1.7516570040
 Zr        22.0731374801        0.0290946474       14.1841200587
 Zr        42.4608420181       35.1526414203        1.8060321534
 Zr        29.5952700882       19.1192781037       14.2545870304
 Zr        29.5845498499       19.1803807984        1.8674645106
 Zr        11.0374567462       19.0519844569        1.8329370934
 Zr        11.0428286306       19.1547984418       14.2464562268
 Zr        31.3638902117       16.0974066647        1.8434797611
 Zr        31.3797403685       16.0436233234       14.2665941215
 Zr        18.6008101037       -0.0018939323        1.7684002175
 Zr        18.5062331564       -0.0080953479       14.2086327019
 Zr        12.3007780723       16.3236640706       15.9857551709
 Zr        48.6149542075       18.8326521886        0.0153245679
 Zr        20.3144802768        2.4725244320       15.9854419237
 Zr        40.6434432282       32.6864059298       15.9731556442
 Zr        28.3508395560       16.3511090887        0.0939948242
 Zr        32.6268895824       18.8561316351        0.0549665135
  H        32.3381614879       18.4490824196        6.7094422673
  O        28.6779305460       15.5344665038       10.9103119483
  H        29.4879979511       15.7341984332       11.4486046404
  H        28.2990309816       14.7283808539       11.3003728581
  O        33.4183058920       15.0957530021        5.6650515092
  H        32.7381874553       14.9132553923        6.3361734350
  H        32.9199481669       15.6364605838        5.0142521891
  O        28.2139979584       19.5603079258        8.6617606839
  H        27.6684905827       19.5373055906        7.8538432544
  H        27.8178566307       18.8381568262        9.2501322680
  H        27.7013405220       16.8112611455       10.4151782394
  H        30.4190480077       15.6103935421        9.2472960076
