     583
 i =      130, E =     -4830.6259751262
  C        11.8583813530       14.0536115276       13.7365153241
  C        12.4558521055       12.8904575344       13.0182373536
  C        11.7042524518       12.1718880820       12.0762587529
  C        12.2805535542       11.1096463530       11.3838494446
  C        13.6209622340       10.7394920878       11.6118815302
  C        14.3539557247       11.4425921218       12.5858254589
  C        13.7811392995       12.5075818991       13.2773741578
  C        14.2605716194        9.6488604779       10.8384969569
  C        14.2562237331        9.6569029001        9.4167860799
  C        13.7430165361       10.7589862851        8.6628433963
  C        49.1265956872       21.2332774403       13.8746212372
  C        48.5498437503       22.4011070285       13.1474413379
  C        49.3000940513       23.0688606400       12.1668987599
  C        48.7331485932       24.1079723043       11.4336822934
  C        47.4023944395       24.5091497634       11.6618742826
  C        46.6711602099       23.8597745470       12.6748479881
  C        47.2336224604       22.8148854948       13.4042190784
  C        46.7722288280       25.5869143297       10.8646127188
  C        46.7614277832       25.5574240819        9.4428488495
  C        47.2614150797       24.4423411887        8.6993792124
  C        14.8602895360        8.5706098029        8.7035421532
  C        14.8911508318        8.5967933910       11.5151513082
  C        49.1129620317       21.2034027425        2.1504340299
  C        48.5275237511       22.3645907592        2.8777290256
  C        49.2670531566       23.0259663670        3.8699827205
  C        48.6906765331       24.0604932359        4.6014325259
  C        47.3599418354       24.4565456587        4.3638054059
  C        46.6391099482       23.8108421906        3.3411028054
  C        47.2127076554       22.7749316565        2.6093543547
  C        46.7216000600       25.5316335778        5.1547683693
  C        46.7335955153       25.5281906071        6.5764598779
  C        47.2491255821       24.4290162662        7.3328291337
  C        40.6231745789       17.1111983210        7.3101550051
  C        40.6390895045       17.1197413357        4.5006568917
  C        11.8828112220       14.0866136010        2.2905523108
  C        12.4721437454       12.9106196103        2.9947365290
  C        11.7146036504       12.1774976287        3.9208629742
  C        12.2811103937       11.0949811190        4.5893017815
  C        13.6198861868       10.7211705762        4.3574658687
  C        14.3578392368       11.4365642662        3.3965188090
  C        13.7924799408       12.5177745427        2.7238277269
  C        14.2535406654        9.6244481498        5.1278978318
  C        14.2524821024        9.6445328820        6.5497406869
  C        13.7425117535       10.7534480167        7.2967946820
  C        22.5115199090        3.2447116599       13.7481740034
  C        23.2252560717        4.3517408638       13.0489116670
  C        24.2240028129        4.0741772783       12.1039642610
  C        24.8494916183        5.1153332225       11.4226900604
  C        24.4919398051        6.4563581274       11.6662852213
  C        23.5212785141        6.7256207184       12.6482217537
  C        22.8912836959        5.6861858688       13.3278698810
  C        25.0965116520        7.5635003949       10.8901620130
  C        25.0694714619        7.5550800507        9.4685737667
  C        24.3649423370        6.5560496918        8.7242262536
  C        38.3032479467       31.9296337756       13.8438787131
  C        37.5754678071       30.8396558877       13.1343074808
  C        36.6180311291       31.1420175185       12.1540878221
  C        36.0031776065       30.1204192266       11.4358362539
  C        36.3309476809       28.7718083772       11.6767551440
  C        37.2585953247       28.4769548705       12.6934654869
  C        37.8778417592       29.4972193265       13.4102808775
  C        35.7300814770       27.6793436810       10.8800482324
  C        35.7614656662       27.6941275156        9.4589145180
  C        36.4692433938       28.6952273230        8.7217787502
  C        25.6956468078        8.6220493423        8.7468623979
  C        25.6929333604        8.6399060029       11.5590753494
  C        38.3288260091       31.9621044083        2.1614844344
  C        37.6075793327       30.8892475415        2.9035288778
  C        36.6816993169       31.1982369598        3.9117462949
  C        36.0721037628       30.1797989098        4.6416815461
  C        36.3738617694       28.8270574049        4.3865744192
  C        37.2772330370       28.5281356073        3.3482870834
  C        37.8892739223       29.5430364821        2.6198536675
  C        35.7660180651       27.7279912851        5.1706689005
  C        35.7796034588       27.7193096349        6.5925540546
  C        36.4776146781       28.7075661837        7.3552963311
  C        46.1356915812       26.6208926369        7.2865659455
  C        46.0874908161       26.5798537142        4.4786654088
  C        22.4594617550        3.2553996101        2.2630476606
  C        23.1510201981        4.3646905674        2.9877626927
  C        24.1526226694        4.0793339666        3.9291220916
  C        24.7784489321        5.1099961647        4.6262275709
  C        24.4226638755        6.4552793663        4.4038144970
  C        23.4437016596        6.7340235550        3.4313925616
  C        22.8130906992        5.7035170520        2.7351401797
  C        25.0536163354        7.5537267768        5.1770786771
  C        25.0482088230        7.5488767699        6.5997706446
  C        24.3528309144        6.5543607190        7.3576272761
  C        26.6174275244       17.8600203692       13.7858078158
  C        25.3087452466       17.9040296396       13.0591438772
  C        25.0140609556       18.9506451850       12.1678322550
  C        23.8051830590       18.9637780594       11.4710358181
  C        22.8514724398       17.9425782234       11.6538977810
  C        23.1408585102       16.9195620274       12.5764106749
  C        24.3533668641       16.8952468304       13.2640581046
  C        21.5773737890       17.9321707890       10.8895138855
  C        21.5803489834       17.9282005220        9.4677170076
  C        22.7885816706       17.8295959267        8.7075081615
  C        34.4219649457       17.2211768862       13.8779360899
  C        35.7170072197       17.1613073265       13.1423449295
  C        35.9140284743       16.2050017546       12.1338465999
  C        37.0998556581       16.1847357694       11.4057465531
  C        38.1197510454       17.1219576107       11.6623440228
  C        37.9252579057       18.0573367212       12.6970388630
  C        36.7384389427       18.0810521137       13.4254266690
  C        39.3741255415       17.1301681092       10.8764154860
  C        39.3680677819       17.1400377052        9.4540285356
  C        38.1608072346       17.2557662046        8.6952762919
  C        20.3330801884       17.9394253896        8.7599918442
  C        20.3541517775       17.9228998827       11.5738436842
  C        34.4499395941       17.2347275776        2.1874159664
  C        35.7544938622       17.1279631535        2.9000009443
  C        35.9577610628       16.1548133122        3.8902977755
  C        37.1479866101       16.1351438291        4.6138691744
  C        38.1611941151       17.0807954580        4.3674678471
  C        37.9653123768       18.0233056244        3.3395373823
  C        36.7749748869       18.0520079598        2.6199089793
  C        39.4074871026       17.1051305015        5.1649908825
  C        39.3854879409       17.1253560949        6.5867001702
  C        38.1684204576       17.2446546277        7.3287583935
  C        35.1483874859       26.6405405719        7.2965721334
  C        35.1724053891       26.6594002196        4.4875269048
  C        26.5682829032       17.8285133492        2.3275410298
  C        25.2521294196       17.8783284468        3.0298156739
  C        24.9817361135       18.8990995554        3.9535521796
  C        23.7646655977       18.9287087480        4.6282540878
  C        22.7896320204       17.9371158210        4.4024341123
  C        23.0531203817       16.9414161859        3.4445248338
  C        24.2709187358       16.9101303914        2.7677167890
  C        21.5278638844       17.9207527097        5.1785023865
  C        21.5541076608       17.9190754414        6.6000168153
  C        22.7751361344       17.8233901726        7.3410368422
  C        14.0458600126       17.8287429850        2.2939450208
  C        15.3503130386       17.8859137613        3.0200660003
  C        15.6064240192       18.8898118953        3.9669541118
  C        16.8153172538       18.9115272952        4.6600218100
  C        17.8022101854       17.9323337496        4.4277377768
  C        17.5507059917       16.9521503014        3.4492356231
  C        16.3410838373       16.9258080813        2.7580152954
  C        19.0718822186       17.9182201887        5.1957843966
  C        19.0721614682       17.9156020648        6.6180345900
  C        17.8658851384       17.8098843746        7.3794487394
  C        46.8040692642       17.2172027613        2.1625507986
  C        45.5128479451       17.1512041615        2.9039688770
  C        45.3098791445       16.1754753987        3.8922110796
  C        44.1264986610       16.1534985042        4.6251013577
  C        43.1162796667       17.1069260131        4.3915884566
  C        43.3161021702       18.0611388523        3.3756738708
  C        44.5004006725       18.0874664318        2.6439264160
  C        41.8629621910       17.1156064167        5.1793663860
  C        41.8695940806       17.1241846784        6.6011722173
  C        43.0784304632       17.2283721845        7.3586865415
  C        20.3194100829       17.9341407593        7.3253988241
  C        20.2955840232       17.9013685441        4.5129011376
  C        46.7838291613       17.2330470098       13.8804939664
  C        45.4824031497       17.1315033453       13.1603318634
  C        45.2650267150       16.1385931831       12.1926333698
  C        44.0777054833       16.1148873991       11.4647024316
  C        43.0764870337       17.0809134072       11.6860491747
  C        43.2849110529       18.0440551213       12.6912631879
  C        44.4732988825       18.0743165581       13.4144491661
  C        41.8291746255       17.1038261553       10.8894573905
  C        41.8523053948       17.1173542420        9.4680292984
  C        43.0704560736       17.2219075070        8.7254779422
  C        46.1534738023       26.6373398916        8.7211045981
  C        46.1621326727       26.6559326451       11.5307497550
  C        14.0451545338       17.8301973573       13.7029011468
  C        15.3664517219       17.9008065637       13.0106894874
  C        15.6434112526       18.9165583414       12.0836420687
  C        16.8728223714       18.9509795048       11.4291605592
  C        17.8532139287       17.9686533326       11.6756403681
  C        17.5827308465       16.9809256423       12.6400369146
  C        16.3553551496       16.9462500252       13.2982094214
  C        19.1211655700       17.9447281821       10.9072715593
  C        19.0982353744       17.9279495874        9.4856714800
  C        17.8784100627       17.8153118222        8.7453181462
  C        28.8039617679       14.0885830316        2.3952653539
  C        28.1905380031       12.9159522818        3.0826059801
  C        28.9225512437       12.1573373752        4.0082140306
  C        28.3221337391       11.0831457865        4.6602910162
  C        26.9777009049       10.7433922864        4.4086290241
  C        26.2669757720       11.4818037664        3.4456685874
  C        26.8643497423       12.5571363009        2.7931812501
  C        26.3096105344        9.6636127391        5.1709416721
  C        26.3031333606        9.6893153232        6.5917605204
  C        26.8178094833       10.7985710638        7.3349900640
  C        32.1772014042       21.2432179214        2.1527103893
  C        32.7693589368       22.4120718301        2.8672533461
  C        32.0212179289       23.0889392879        3.8428700814
  C        32.5924461099       24.1273136885        4.5720590655
  C        33.9268676208       24.5164476873        4.3459296953
  C        34.6569108536       23.8587821007        3.3379755468
  C        34.0885064109       22.8147968141        2.6108833308
  C        34.5575981855       25.5897836481        5.1472254820
  C        34.5526030954       25.5589237654        6.5688487529
  C        34.0430084221       24.4441027804        7.3069194865
  C        25.6895915577        8.6150445735        7.3123959083
  C        25.6685616734        8.6150417043        4.4990824485
  C        32.1063200293       21.2316544095       13.8828894675
  C        32.6986213524       22.3825350897       13.1403995891
  C        31.9629217441       23.0416498688       12.1434953237
  C        32.5439081346       24.0687294731       11.4035918603
  C        33.8738379780       24.4664095502       11.6432277698
  C        34.5922342112       23.8206729343       12.6677579975
  C        34.0162594463       22.7876575931       13.4025887944
  C        34.5147390620       25.5460202316       10.8574298246
  C        34.5300917796       25.5367429279        9.4355123674
  C        34.0313275795       24.4335174042        8.6736224083
  C        40.6142569530       17.1131726863        8.7449482559
  C        40.5984743541       17.1278779365       11.5551567012
  C        28.7464904312       14.0621083856       13.8296029078
  C        28.1324887042       12.9198907812       13.0841868507
  C        28.8721864060       12.2159074724       12.1196769009
  C        28.2873228000       11.1656677937       11.4147943751
  C        26.9497707591       10.7904116703       11.6512865215
  C        26.2261643452       11.4838012999       12.6404726850
  C        26.8065130129       12.5360828018       13.3449227825
  C        26.3080398021        9.6993251765       10.8792283132
  C        26.3039957354        9.7085970650        9.4575766539
  C        26.8158411384       10.8092035390        8.7007736000
  C        18.1352918409        3.1808645765        2.3222423422
  C        17.4058935725        4.2781027046        3.0208144593
  C        16.3905195097        3.9996882098        3.9486862435
  C        15.7427572898        5.0396319467        4.6122182872
  C        16.0942871445        6.3833931126        4.3722193729
  C        17.0831919317        6.6529568110        3.4079651198
  C        17.7323061680        5.6156571973        2.7428869679
  C        15.4700292102        7.4911192115        5.1352530968
  C        15.4855132456        7.4905571914        6.5569617203
  C        16.1871078939        6.4969940931        7.3101667248
  C        42.9459279283       31.8593656137        2.0780527715
  C        43.6462187474       30.7717861278        2.8219410979
  C        44.5920871478       31.0930304595        3.8077407379
  C        45.1977421580       30.0874342256        4.5553471753
  C        44.8709414923       28.7344058651        4.3407427492
  C        43.9447760292       28.4201376630        3.3278139887
  C        43.3360079759       29.4253202763        2.5798056073
  C        45.4885383051       27.6551263375        5.1439346656
  C        45.4929622016       27.6809765341        6.5656170241
  C        44.8059843312       28.6891063204        7.3122251207
  C        14.8565838144        8.5630834296        7.2693098867
  C        14.8745938246        8.5628005766        4.4566476386
  C        42.9464341010       31.9613870979       13.8037869670
  C        43.6916073177       30.8853737184       13.0903558432
  C        44.6563968633       31.1912763922       12.1182167829
  C        45.2779035807       30.1716888375       11.4005168962
  C        44.9539288322       28.8213666878       11.6379520599
  C        44.0202404852       28.5237035864       12.6485513584
  C        43.3919817295       29.5404600546       13.3607254990
  C        45.5629991377       27.7240176260       10.8526843205
  C        45.5335039179       27.7174958549        9.4313863072
  C        44.8272603496       28.7077643674        8.6784093283
  C        35.1381574713       26.6282799315        8.7312085065
  C        35.1254946553       26.6042612364       11.5408103181
  C        18.1483752925        3.2468754342       13.7015727672
  C        17.4295644478        4.3437059749       12.9924242865
  C        16.4148078944        4.0523579313       12.0683876372
  C        15.7664447497        5.0829368532       11.3929520778
  C        16.1205779513        6.4282402890       11.6161010825
  C        17.1113050963        6.7116808632       12.5740307967
  C        17.7590225611        5.6828298177       13.2538326994
  C        15.4902113219        7.5239606405       10.8435987210
  C        15.4964293734        7.5074694535        9.4224590583
  C        16.1932742431        6.5058107231        8.6757732048
  H        10.6722169470       12.4662759662       11.8990518293
  H        11.6942334389       10.5514208773       10.6571319075
  H        15.3907866352       11.1675038118       12.7679372675
  H        14.3503406559       13.0704381388       14.0132924290
  H        13.3756612575       11.6309664793        9.1961547538
  H        50.3229487209       22.7491317414       11.9824658997
  H        49.3197324623       24.6235484129       10.6763941412
  H        45.6414153036       24.1599921378       12.8575114575
  H        46.6623117622       22.2891657093       14.1657613229
  H        47.6298243017       23.5759196264        9.2410828481
  H        14.8710050102        8.5878250865       12.6034485238
  H        50.2873538404       22.7036486905        4.0644033890
  H        49.2692247129       24.5764796504        5.3644579950
  H        45.6093536649       24.1073030400        3.1527319339
  H        46.6514944596       22.2520368161        1.8385713190
  H        47.6077588046       23.5518377772        6.8019252292
  H        40.6453727495       17.0800360461        3.4130762508
  H        48.6866799768       14.0949385642       15.7948354049
  H        10.6811240802       12.4666000040        4.0982241915
  H        11.6891976276       10.5246263829        5.3019367098
  H        15.3931937082       11.1584647953        3.2104905096
  H        14.3646934886       13.0870253481        1.9951067848
  H        13.3753753917       11.6219035702        6.7581088608
  H        47.9301394740       14.2174301694        1.7159625662
  H        47.7796253951       14.3720262198       14.4894989471
  H        49.0823175519       18.5519425596        2.8719575553
  H        10.4152399734       14.1343850751        0.0038353592
  H        24.4877634325        3.0362156196       11.9134267355
  H        25.6240278338        4.8995831356       10.6898849428
  H        23.2371683635        7.7577635547       12.8426045078
  H        22.1195747030        5.8845636115       14.0676402784
  H        23.8027316427        5.8011040428        9.2660431581
  H        36.3808272608       32.1848660349       11.9573386170
  H        35.2603039138       30.3575878650       10.6774596183
  H        37.5188208432       27.4382074494       12.8861275991
  H        38.6200050155       29.2780319994       14.1741991276
  H        37.0370573918       29.4429163746        9.2678425580
  H        25.7258529667        8.6254952016       12.6470219032
  H        36.4608314785       32.2425269465        4.1207407833
  H        35.3488419929       30.4246927669        5.4163685783
  H        37.5219672863       27.4877468526        3.1447472963
  H        38.6094928332       29.3172056457        1.8372881217
  H        37.0527976267       29.4643240111        6.8296473999
  H        46.1085412154       26.5869683261        3.3906203588
  H        44.6682253361       35.1160449881       15.8087612556
  H        24.4315695818        3.0413452213        4.0958037153
  H        25.5592928891        4.8820450919        5.3486563924
  H        23.1575041846        7.7682422936        3.2511799567
  H        22.0413904713        5.9152414228        1.9986371275
  H        23.7804817588        5.7987177702        6.8273171838
  H        44.9538271834       34.3903629847        1.7001911655
  H        44.9017290992       34.2068573576       14.4852740382
  H        40.6657314740       33.2086379105        2.8580621384
  H        23.1505746265        1.9573857785        0.0105103535
  H        25.7408278789       19.7512471321       12.0403289611
  H        23.5841953805       19.7767298846       10.7823526063
  H        22.4151940887       16.1221581381       12.7239895432
  H        24.5882588555       16.0932237200       13.9602403889
  H        23.7340126482       17.7255777486        9.2328747733
  H        35.1216978259       15.4900572827       11.9262217700
  H        37.2501525522       15.4345434021       10.6325570335
  H        38.7041391761       18.7893800041       12.9002982468
  H        36.5730951771       18.8176091511       14.2083324175
  H        37.2206055998       17.3810433355        9.2242611298
  H        20.3616242699       17.9510298630       12.6620892245
  H        35.1722308068       15.4378555037        4.1175879317
  H        37.2964587604       15.3813469539        5.3839627782
  H        38.7409092245       18.7603698159        3.1421962101
  H        36.6014515124       18.8007327391        1.8508518623
  H        37.2340514768       17.3561540880        6.7860197854
  H        35.1419946003       26.6868713860        3.3999469116
  H        28.5135860624       21.0884247707       15.9785524273
  H        25.7382353000       19.6614383620        4.1248009584
  H        23.5544204643       19.7239526710        5.3402238469
  H        22.3074024471       16.1696887774        3.2648713708
  H        24.4913862903       16.1299546012        2.0430233585
  H        23.7089024236       17.7146618514        6.7972139326
  H        28.9973663169       21.7215526237        1.7733233628
  H        29.1337991194       21.7591073591       14.6044701348
  H        32.1226217599       18.5837860382        2.9735072976
  H        27.4047460661       19.0786974564        0.1023562959
  H        14.8476306134       19.6486976238        4.1443645370
  H        17.0103211683       19.6963756109        5.3877209853
  H        18.3022052773       16.1880279183        3.2612716103
  H        16.1350274653       16.1560231291        2.0181016038
  H        16.9238543533       17.6910960191        6.8519652478
  H        46.0965032120       15.4482887445        4.0791441578
  H        43.9695201853       15.3898660830        5.3837170733
  H        42.5434835129       18.8045582510        3.1907765265
  H        44.6712100171       18.8388654985        1.8765764664
  H        44.0192772467       17.3446231013        6.8283657743
  H        20.2888632309       17.9268965770        3.4246799571
  H        46.0418267812       15.3988126532       12.0129511209
  H        43.9128778055       15.3435022293       10.7155669670
  H        42.5180379142       18.7949379297       12.8698141589
  H        44.6535367773       18.8372435299       14.1678057615
  H        44.0051785459       17.3317857821        9.2676670897
  H        46.1986976112       26.6822860598       12.6182079547
  H        52.7409090248       21.0625403169        0.1997815001
  H        14.8854271181       19.6730949528       11.8926978981
  H        17.0864469422       19.7420312199       10.7135200061
  H        18.3301779570       16.2153853822       12.8380339498
  H        16.1314203444       16.1711504628       14.0271101791
  H        16.9459183249       17.7006163976        9.2897040003
  H        52.3219317788       21.6729527275       14.2892375855
  H        52.0128401480       21.7017824827        1.5007487130
  H        49.0665378959       18.6075670554       13.1990783046
  H        13.2470455338       19.0167097696       15.9719232432
  H        29.9601271692       12.4208896880        4.2018195206
  H        28.8904272367       10.4939217848        5.3768241665
  H        25.2279403122       11.2285399053        3.2453032749
  H        26.3144025849       13.1496734814        2.0661295016
  H        27.1891880873       11.6627958249        6.7925317169
  H        30.9965817707       22.7742429968        4.0257712036
  H        32.0080891548       24.6510042340        5.3254670527
  H        35.6897790115       24.1501746740        3.1584961139
  H        34.6581926386       22.2803609675        1.8541345488
  H        33.6838625166       23.5768517389        6.7603023947
  H        25.6946260580        8.5963140217        3.4109845649
  H        30.9386271987       22.7275696859       11.9557133804
  H        31.9673825956       24.5806353431       10.6361750294
  H        35.6218533912       24.1167978030       12.8576050199
  H        34.5762773542       22.2659832982       14.1752099224
  H        33.6634261825       23.5577490653        9.2009181182
  H        40.5922060357       17.0898495186       12.6428409091
  H        32.5289606738       14.1484372816        0.2665173167
  H        29.9068552677       12.5024531842       11.9432604181
  H        28.8685146163       10.6161790588       10.6773820157
  H        25.1907834044       11.2067252190       12.8282128221
  H        26.2466432949       13.0855302910       14.0982268215
  H        27.1848759052       11.6827808825        9.2301382702
  H        33.3022315675       14.2079172125       14.4342201265
  H        33.4029585049       14.3585519976        1.6435525950
  H        32.2061571301       18.5753813703       13.2440011814
  H        30.2369270021       14.1883193781        0.0814966702
  H        16.1187208948        2.9631556056        4.1353279901
  H        14.9535082859        4.8201658066        5.3280764481
  H        17.3651167360        7.6858917891        3.2144477537
  H        18.5139090469        5.8182877009        2.0145719700
  H        16.7535568935        5.7395576003        6.7766912628
  H        44.8286996112       32.1400604667        3.9817532072
  H        45.9378510061       30.3410675733        5.3110914253
  H        43.6817203688       27.3781180874        3.1579415744
  H        42.5991260075       29.1899675291        1.8154047853
  H        44.2305875759       29.4368381504        6.7739187373
  H        14.8504838337        8.5458438539        3.3684378009
  H        44.9001683430       32.2339301088       11.9269384853
  H        46.0249524620       30.4128681435       10.6474095907
  H        43.7630681454       27.4839920264       12.8399399764
  H        42.6453778584       29.3175755501       14.1190385887
  H        44.2686966356       29.4706303045        9.2129611866
  H        35.0828774795       26.6169799652       12.6282598924
  H        36.6049063268       35.1339403339        0.1858261374
  H        16.1440933341        3.0127384639       11.8983190128
  H        14.9744306285        4.8559739308       10.6825540310
  H        17.3941336078        7.7472352571       12.7514774803
  H        18.5413353544        5.8932941686       13.9791956317
  H        16.7645568354        5.7554663144        9.2142247183
  H        36.2779156819       34.4828958153       14.2679539034
  H        36.3800287458       34.2095498920        1.5051378641
  H        40.5802258083       33.2021696664       13.1486281522
  H        17.4705273953        1.9469550283       15.9690249301
  H        28.9209080172       19.0801431774        4.4695724800
  H        28.8621985465       18.7237824516       11.8157436956
  H        31.7954810677       15.8118815264       11.5392708410
  H        30.9876286475       15.3922931512        4.3668889877
  H        28.3602791044       17.3395844155        6.8456610668
  H        29.6885639354       15.1273340598        6.9498715569
  H        30.4149825695       20.0408531991       10.1464681828
  H        32.9284294121       17.5742321547        9.3932570708
  H        26.4664306207       17.7347534963       10.7537910670
  H        18.8535290676        0.8691104950        4.3403575358
  H        40.5277960333       35.2293354286       11.9470527933
  H        42.3240340422       34.4190311070       11.5856952942
  H        22.0881497969        0.6916517419        4.3568427131
  H        11.5966570607       18.7133251089        4.3875266928
  H        52.2646898270       18.4307072926       11.6723416902
  H        49.2545905373       16.4770787425       11.5796162244
  H        10.1501889708       15.7982017217        4.2980966734
  H        50.8495470554       17.6924159841       11.9492792055
  H        10.0459050681       17.3944822472        4.0571464088
  H        20.2148288966        0.0023142312        4.0471331539
  H        39.1834047563       36.1243637258       11.6813332957
 Ni        31.1114637094       17.9630317492       11.0716026159
 Ni        31.2395890871       16.4258591259        8.2430062887
 Ni        30.0563049943       18.6228067268        8.1579020494
 Ni        30.3107816916       17.4003365272        5.3326333451
  O        10.6498117232       14.3651652043       13.4806530739
  O        12.6131193594       14.6575348632       14.5787539240
  O        49.1479287704       16.8460609926       15.9846177571
  O        50.3501821386       20.9359659001       13.6430465805
  O        48.3485277911       20.5933282365       14.6608435421
  O        11.0512406566       17.0539765362       14.4953970961
  O        50.3209385230       20.8817029780        2.4118878954
  O        48.3467335505       20.5867512873        1.3321536582
  O        49.5435769189       18.2485096888        2.0733325084
  O        12.3588124749       18.6245313629        0.0047519954
  O        48.6931670138       14.1487005819       14.7461241058
  O         8.2098829415       14.2103266464        1.3275931704
  O        10.7353866508       14.5067269561        2.6694623408
  O        12.5718523796       14.5828212439        1.3335875723
  O        22.8448318591        2.0440096933       13.4818515138
  O        21.6053245549        3.5924556018       14.5847521250
  O        42.0581478114       34.1372305508       15.9738444776
  O        37.9819947228       33.1379871261       13.5675094714
  O        39.2184783076       31.5764520098       14.6619421462
  O        20.3083680578        1.0394807621       14.4968504065
  O        38.0248481594       33.1860480007        2.4201842687
  O        39.2191862344       31.5838699321        1.3315011212
  O        40.6523028765       33.7692771572        2.0653931277
  O        18.2553884464        1.3760190990        0.0019174417
  O        44.6221951002       35.1005758639       14.7535773701
  O        24.2053739034        0.0000485692        1.3259265646
  O        22.7529524111        2.0578425504        2.5889941334
  O        21.6242546996        3.5959917130        1.3474213527
  O        27.4900588012       18.7507682304       13.4910958207
  O        26.7617300891       16.9325843617       14.6508117767
  O        30.6712311048       19.4068160106        0.0820246717
  O        33.5413979017       16.3370345009       13.5830461297
  O        34.2737671053       18.1670418044       14.7271639950
  O        29.5755400954       17.0653692659       14.5746709229
  O        33.5586571159       16.3426478301        2.4218730039
  O        34.3016954923       18.2413199477        1.4126197847
  O        31.6531524756       18.3112171051        2.1685798150
  O        30.3250889217       15.1555314038        0.0930827541
  O        28.5516613591       21.0367836240       14.9019374499
  O        28.5135341155       20.9569685779        1.4171982239
  O        27.4546571582       18.6798449569        2.6631152291
  O        26.6941355848       16.9289749165        1.4177084364
  O        13.1486060966       18.6930528582        2.5926369001
  O        13.9195545220       16.9162064177        1.4102356863
  O        50.5956413921       19.3501652333        0.0254652939
  O        47.6838160112       16.3269018429        2.4220829099
  O        46.9516869880       18.1756666783        1.3297090982
  O        11.0694712410       17.0156669570        1.4948654976
  O        47.6744952736       16.3361127183       13.6473408225
  O        46.9260424758       18.2359333690       14.6586683502
  O        49.5682199372       18.3177219672       13.9770458629
  O        10.3184678191       15.1002953030        0.0021330390
  O        52.6707117617       21.0278862502        1.2469388222
  O        12.1468271275       20.8910442224       14.6680068668
  O        13.1090021704       18.6134173304       13.3202524726
  O        13.9573380405       16.9867502873       14.6603802856
  O        29.9898905299       14.4382236058        2.7349961976
  O        28.0887883470       14.6534347795        1.4990002557
  O        32.1409027554       16.8561436931        0.0836884045
  O        30.9642782766       20.9499361545        2.4182245462
  O        32.9462751075       20.6037552177        1.3485750288
  O        29.5703432550       17.0736551166        1.5801556583
  O        30.8779597390       20.9503810653       13.6612467139
  O        32.8823635247       20.5846823925       14.6636156321
  O        31.6782766013       18.2692281720       14.0000632412
  O        28.2888701738       18.6776558981        0.0836860309
  O        32.4903107001       14.2111255912        1.3348515181
  O        32.4076094383       14.2196968419       14.8140801015
  O        29.9169907231       14.4338416964       13.4917049172
  O        28.0365854287       14.5892294819       14.7533700250
  O        17.8892131099        1.9665941280        2.6679208356
  O        18.9562047733        3.5271137641        1.4130959583
  O        39.1687572894       34.1388460603        0.0023195428
  O        43.2802181900       33.0589495575        2.3367808622
  O        42.0345394531       31.5064854429        1.2467169262
  O        20.3176200084        1.0366170939        1.4854265099
  O        43.2760327633       33.1825420497       13.5698275889
  O        42.0052683400       31.5841065494       14.5779053737
  O        40.5790951855       33.7749537377       13.9306840276
  O        22.3672362191        1.3845072449        0.0029877116
  O        36.6727250452       35.0998098232        1.2384111263
  O        16.4455235657        0.0642728699       14.6631731540
  O        17.9364477423        2.0433607908       13.3212637844
  O        18.9189947255        3.5931278481       14.6608160567
  O        29.7389071192       18.9723251981       12.1642800658
  O        29.7497584106       18.8330101937        4.0168000430
  O        31.1774656958       16.3353600038       12.0867805808
  O        31.3101981759       16.2633689691        4.0609669333
  O        32.2804067466       16.9301056452        9.7322579424
  O        27.1570294125       17.5820952962       10.0836453369
  O        30.4575889669       15.6804096070        6.7368264726
  O        31.5298130892       17.9652219108        6.9220363133
  O        30.9617932912       19.3384795412        9.7466064435
  O        28.8952208439       18.1078846085        6.5828995275
  O        39.4568047735       35.2438113479       11.9968295079
  O        19.1415557848        0.0046960297        3.9956422326
  O        41.9699004208       35.1731276976       12.0821956723
  O        21.6913156919       -0.0693737978        3.9009650621
  O        51.3649829526       18.6142118110       12.0004251766
  O        10.7508622049       18.7473687454        3.9100213145
  O        50.0791754403       16.4128791952       12.0867121762
  O         9.5244862457       16.4830591739        3.9963448840
 Zr         9.2951213973       16.0529356543       14.1772171518
 Zr        49.8351874460       16.0066970548        1.7517449831
 Zr        22.0731002113        0.0291642621       14.1840984321
 Zr        42.4608334572       35.1526872327        1.8058817312
 Zr        29.6016052206       19.1251367810       14.2967249095
 Zr        29.5806115562       19.1718792504        1.8907468893
 Zr        11.0368102482       19.0521779821        1.8326103817
 Zr        11.0426975955       19.1549180961       14.2464261976
 Zr        31.3549565355       16.1001826849        1.8807568639
 Zr        31.3900078439       16.0260083505       14.2997144710
 Zr        18.6008183510       -0.0019672092        1.7685713569
 Zr        18.5061687621       -0.0083049957       14.2086414296
 Zr        12.3004532797       16.3236222159       15.9851908945
 Zr        48.6145039672       18.8327387611        0.0151954517
 Zr        20.3145158048        2.4724442284       15.9854389067
 Zr        40.6432625912       32.6863462163       15.9732218512
 Zr        28.3525739090       16.3488985055        0.0916874894
 Zr        32.6304332840       18.8478110233        0.0652188139
  H        32.3379835875       18.4961542028        6.8270226885
  O        28.6802584490       15.5365522544       10.9085904747
  H        29.4892739774       15.7204899812       11.4487838842
  H        28.2880255152       14.7385958212       11.3014895776
  O        33.4189239937       15.0958076883        5.6644999002
  H        32.7075424190       14.8631772241        6.2866661034
  H        32.9464222479       15.6790097661        5.0321233679
  O        28.2213707010       19.5637903457        8.7526405654
  H        27.8471971037       19.4227971803        7.8586079233
  H        27.7783439204       18.8525845071        9.3198938817
  H        27.7089857615       16.8132299134       10.4174737035
  H        30.6225946318       15.4562008752        9.1058788526
