     583
 i =      216, E =     -4830.6442481856
  C        11.8583036427       14.0535369294       13.7366037722
  C        12.4558236779       12.8904608131       13.0182752877
  C        11.7042283860       12.1718976054       12.0762885344
  C        12.2805318021       11.1096755322       11.3838544731
  C        13.6209089450       10.7394274396       11.6119579961
  C        14.3538840085       11.4425124010       12.5859325898
  C        13.7810619563       12.5074790827       13.2775118483
  C        14.2605154370        9.6488312790       10.8385177097
  C        14.2562006553        9.6569023045        9.4168047130
  C        13.7428888806       10.7589415998        8.6628693115
  C        49.1265703756       21.2332061428       13.8745434120
  C        48.5498453991       22.4010646144       13.1474045575
  C        49.3000689712       23.0687738464       12.1668112171
  C        48.7331480851       24.1079379443       11.4336561926
  C        47.4023805321       24.5090730637       11.6618362405
  C        46.6711573382       23.8597443990       12.6748443739
  C        47.2336024592       22.8147992205       13.4041444642
  C        46.7722682228       25.5869082264       10.8646333217
  C        46.7613612519       25.5573669041        9.4428729953
  C        47.2613501107       24.4422937414        8.6993883036
  C        14.8602512455        8.5706003899        8.7035631306
  C        14.8911827366        8.5968104403       11.5151775156
  C        49.1129976229       21.2034272996        2.1504082714
  C        48.5275356649       22.3645824000        2.8777409654
  C        49.2670409698       23.0259313309        3.8700284304
  C        48.6906420473       24.0604496826        4.6014689537
  C        47.3599235952       24.4565388616        4.3638202498
  C        46.6391273144       23.8108373334        3.3410933174
  C        47.2127234608       22.7749280644        2.6093423611
  C        46.7215610223       25.5316115145        5.1547908998
  C        46.7336156549       25.5281943953        6.5764819378
  C        47.2489946746       24.4289401500        7.3328385733
  C        40.6232459620       17.1112183914        7.3093646926
  C        40.6386682633       17.1223242651        4.4998730545
  C        11.8828105700       14.0865708254        2.2904638599
  C        12.4720985660       12.9105531021        2.9946318842
  C        11.7145976792       12.1774806699        3.9208368540
  C        12.2811187268       11.0950178567        4.5893562134
  C        13.6198641624       10.7211312703        4.3574229106
  C        14.3578079915       11.4364881603        3.3964321260
  C        13.7924048407       12.5176342641        2.7236741554
  C        14.2536142586        9.6245077286        5.1279191625
  C        14.2524153245        9.6445121619        6.5497662437
  C        13.7424481787       10.7534315553        7.2968205723
  C        22.5118669544        3.2446812217       13.7483881084
  C        23.2266132151        4.3514044660       13.0498030243
  C        24.2253532469        4.0732749783       12.1049810295
  C        24.8519331399        5.1140724929       11.4241817728
  C        24.4953943220        6.4552727988       11.6680747492
  C        23.5248131736        6.7251162967       12.6499130414
  C        22.8936871159        5.6860420418       13.3290761892
  C        25.1005338496        7.5621875690       10.8920768426
  C        25.0708070005        7.5552074473        9.4705738617
  C        24.3653895049        6.5566105578        8.7265385886
  C        38.3023342446       31.9295314921       13.8441977829
  C        37.5725417197       30.8399969011       13.1353417991
  C        36.6141497701       31.1432756259       12.1562260297
  C        35.9971837267       30.1224604976       11.4385085486
  C        36.3235204704       28.7733296205       11.6786543378
  C        37.2517430352       28.4775893544       12.6946566145
  C        37.8730806513       29.4970845885       13.4109917040
  C        35.7218866061       27.6812065888       10.8814845985
  C        35.7555457203       27.6953251324        9.4602263189
  C        36.4631216699       28.6968660202        8.7234620034
  C        25.6961145243        8.6226042446        8.7487673386
  C        25.6989114633        8.6373916656       11.5610120063
  C        38.3288411663       31.9618013807        2.1615351292
  C        37.6086582503       30.8884105638        2.9041711914
  C        36.6814107723       31.1964101001        3.9114288738
  C        36.0726718507       30.1773527314        4.6413254123
  C        36.3766371871       28.8248319356        4.3873938398
  C        37.2813044147       28.5269066864        3.3498967003
  C        37.8923047990       29.5423925833        2.6213525022
  C        35.7693878312       27.7251428699        5.1713195653
  C        35.7795748377       27.7180529434        6.5933466483
  C        36.4743992038       28.7079313531        7.3569364991
  C        46.1356572732       26.6208684699        7.2865875001
  C        46.0875340172       26.5798769101        4.4786850502
  C        22.4590707686        3.2556302786        2.2636826164
  C        23.1500962511        4.3651607336        2.9887127818
  C        24.1506837986        4.0803177221        3.9313588337
  C        24.7757961024        5.1112616580        4.6287873319
  C        24.4203407736        6.4565724813        4.4056957551
  C        23.4422439443        6.7347608159        3.4321862507
  C        22.8123234764        5.7039909097        2.7356520188
  C        25.0506597027        7.5554695625        5.1790357281
  C        25.0463621852        7.5503271160        6.6017978247
  C        24.3515283478        6.5556698191        7.3599556807
  C        26.6247945796       17.8627737191       13.7805991786
  C        25.3159624037       17.9112709654       13.0549340617
  C        25.0211814909       18.9576753707       12.1634342892
  C        23.8108788295       18.9719572318       11.4689789846
  C        22.8555318259       17.9526167023       11.6542962350
  C        23.1450956899       16.9299574227       12.5772830343
  C        24.3586988385       16.9044715289       13.2627003490
  C        21.5806030561       17.9418364434       10.8909328040
  C        21.5829016793       17.9349958371        9.4690867793
  C        22.7907540798       17.8334325470        8.7086198166
  C        34.4207020439       17.2228084379       13.8730349397
  C        35.7153259935       17.1632131685       13.1375136191
  C        35.9173172638       16.2006401338       12.1361112387
  C        37.1037576872       16.1799629300       11.4091337959
  C        38.1195416120       17.1229914272       11.6604100361
  C        37.9204721477       18.0648519146       12.6881107668
  C        36.7329189565       18.0888589240       13.4152004245
  C        39.3744536035       17.1310684857       10.8752696837
  C        39.3682696871       17.1388574209        9.4530042292
  C        38.1604470488       17.2514403077        8.6947000429
  C        20.3352530827       17.9443851895        8.7618527982
  C        20.3574696630       17.9333032924       11.5757839817
  C        34.4505679150       17.2351345956        2.1858812009
  C        35.7544067350       17.1308997244        2.9001320295
  C        35.9618496608       16.1515706959        3.8834626812
  C        37.1516383697       16.1319640778        4.6076367863
  C        38.1608874098       17.0833134521        4.3674927857
  C        37.9611868268       18.0324779975        3.3466336257
  C        36.7709017641       18.0612237655        2.6269355222
  C        39.4074247088       17.1065304628        5.1646438595
  C        39.3854149856       17.1245432100        6.5862246192
  C        38.1679771953       17.2403105084        7.3282192801
  C        35.1486305627       26.6389168466        7.2970764455
  C        35.1785193084       26.6550339639        4.4879978263
  C        26.5696775658       17.8294981729        2.3279733877
  C        25.2535773820       17.8787740773        3.0307649855
  C        24.9840720725       18.8980387758        3.9564499832
  C        23.7669101223       18.9276062259        4.6310431096
  C        22.7905701797       17.9375735911        4.4033641999
  C        23.0534832249       16.9431606424        3.4439344744
  C        24.2712260945       16.9121382285        2.7668979029
  C        21.5289168852       17.9209636226        5.1798231046
  C        21.5554837129       17.9204650475        6.6014173965
  C        22.7767199878       17.8246587929        7.3421508453
  C        14.0461556383       17.8285048893        2.2943547831
  C        15.3504568388       17.8850100202        3.0214035362
  C        15.6064336236       18.8884455037        3.9688783413
  C        16.8152124819       18.9100146398        4.6622864468
  C        17.8024489880       17.9310746667        4.4300773547
  C        17.5509851049       16.9511813200        3.4511915055
  C        16.3414730285       16.9250277510        2.7595557706
  C        19.0725746449       17.9177158012        5.1978482703
  C        19.0734809222       17.9166845109        6.6202066808
  C        17.8676620080       17.8116127724        7.3824161404
  C        46.8039846285       17.2171423731        2.1622769813
  C        45.5126153851       17.1513202379        2.9033435326
  C        45.3087243158       16.1750513594        3.8908512391
  C        44.1252200654       16.1535917771        4.6235433042
  C        43.1158686261       17.1080650375        4.3905428701
  C        43.3164588693       18.0626353515        3.3751343957
  C        44.5008745134       18.0884432074        2.6435971493
  C        41.8626705445       17.1171846429        5.1783974469
  C        41.8695223092       17.1250964948        6.6001780760
  C        43.0784435201       17.2296188348        7.3575657832
  C        20.3209883948       17.9368063115        7.3271787557
  C        20.2962456217       17.9007050524        4.5146995683
  C        46.7838920366       17.2333811592       13.8801490465
  C        45.4826299034       17.1325539870       13.1595912420
  C        45.2650802344       16.1400864476       12.1914681992
  C        44.0778346862       16.1170249214       11.4633988687
  C        43.0767741228       17.0831799256       11.6850512833
  C        43.2854962701       18.0460810571       12.6904273364
  C        44.4738209618       18.0757114998       13.4137589948
  C        41.8294189738       17.1061097955       10.8885524579
  C        41.8525147191       17.1186429235        9.4671167312
  C        43.0705585844       17.2235484396        8.7243676591
  C        46.1536059000       26.6373921973        8.7211265876
  C        46.1621965321       26.6559369389       11.5307686899
  C        14.0458162855       17.8311354273       13.7034339155
  C        15.3679280252       17.9038050935       13.0123261488
  C        15.6441026715       18.9198261829       12.0852520476
  C        16.8738929088       18.9562049534       11.4314211537
  C        17.8559426613       17.9756523149       11.6785194288
  C        17.5864532613       16.9879343492       12.6432819452
  C        16.3586034891       16.9512948780       13.3007140304
  C        19.1240047843       17.9526841099       10.9097840204
  C        19.1006544399       17.9338941146        9.4880894377
  C        17.8806916841       17.8190571823        8.7482743736
  C        28.8033521813       14.0876788659        2.3941795889
  C        28.1881810753       12.9167128332        3.0827024068
  C        28.9190734373       12.1595346044        4.0104516793
  C        28.3178530527       11.0862299588        4.6632821867
  C        26.9737508106       10.7459232023        4.4103279661
  C        26.2639827643       11.4833291950        3.4458933275
  C        26.8621413908       12.5578216340        2.7926758295
  C        26.3055048736        9.6662334953        5.1726595488
  C        26.2997546539        9.6917531895        6.5935423676
  C        26.8131676409       10.8015562714        7.3368873342
  C        32.1796796948       21.2419526929        2.1489570479
  C        32.7747879525       22.4081195491        2.8658100904
  C        32.0280503580       23.0831942844        3.8437697626
  C        32.5998748788       24.1209079315        4.5733640013
  C        33.9337766970       24.5112667542        4.3459005156
  C        34.6627518488       23.8546647162        3.3364424374
  C        34.0936266013       22.8113276137        2.6087298032
  C        34.5639027479       25.5849973227        5.1473590532
  C        34.5558777103       25.5557511135        6.5690744079
  C        34.0468727977       24.4406230459        7.3070522921
  C        25.6874866654        8.6168332471        7.3142719795
  C        25.6649712112        8.6171826598        4.5009403631
  C        32.1042668126       21.2248553669       13.8750471077
  C        32.6924870364       22.3770150555       13.1328108004
  C        31.9570236796       23.0367218687       12.1361588080
  C        32.5372093325       24.0664447412       11.3991647587
  C        33.8658973902       24.4667303157       11.6417498988
  C        34.5838067825       23.8205490589       12.6663147798
  C        34.0087440592       22.7851565320       13.3981448424
  C        34.5071677235       25.5473186057       10.8573901974
  C        34.5261654960       25.5367573540        9.4355179783
  C        34.0313140274       24.4317206370        8.6736981656
  C        40.6144836627       17.1133669494        8.7440541395
  C        40.5986085558       17.1302966601       11.5542447709
  C        28.7485738193       14.0628052048       13.8289662050
  C        28.1373595524       12.9185124869       13.0853868836
  C        28.8747921608       12.2201396805       12.1150755432
  C        28.2904929712       11.1691126779       11.4110978897
  C        26.9556259059       10.7878316723       11.6535221183
  C        26.2349690403       11.4749570135       12.6493151995
  C        26.8147369010       12.5276988636       13.3532619973
  C        26.3130077978        9.6975409515       10.8812209435
  C        26.3048544880        9.7090718811        9.4594641836
  C        26.8135084099       10.8112602616        8.7027424663
  C        18.1355158680        3.1808808116        2.3223855722
  C        17.4060728495        4.2781169453        3.0209433278
  C        16.3905562152        3.9997449368        3.9486722796
  C        15.7427921060        5.0397059103        4.6121838305
  C        16.0944262201        6.3834535357        4.3722515987
  C        17.0835133576        6.6529857638        3.4081766964
  C        17.7326236315        5.6156598065        2.7431305907
  C        15.4701903809        7.4912150339        5.1352730016
  C        15.4855642466        7.4905921231        6.5569851646
  C        16.1872418609        6.4970910575        7.3101934761
  C        42.9459553388       31.8593796210        2.0780146069
  C        43.6462700195       30.7717907512        2.8219046584
  C        44.5921170327       31.0930689871        3.8077150476
  C        45.1977609435       30.0874872288        4.5553556924
  C        44.8710069553       28.7344482895        4.3407500265
  C        43.9448718839       28.4201586713        3.3277996140
  C        43.3361148978       29.4253172764        2.5797492951
  C        45.4885833380       27.6551551700        5.1439452566
  C        45.4930937550       27.6810501119        6.5656289575
  C        44.8061264670       28.6891734456        7.3122566782
  C        14.8566615941        8.5631371412        7.2693299012
  C        14.8746563569        8.5628434109        4.4566680182
  C        42.9466634808       31.9613942522       13.8040490553
  C        43.6915817295       30.8853916625       13.0903147915
  C        44.6564700542       31.1913092760       12.1182765814
  C        45.2779612019       30.1717486718       11.4005213894
  C        44.9540800962       28.8214133302       11.6380100553
  C        44.0203806099       28.5237211746       12.6485911619
  C        43.3921517496       29.5404627658       13.3608135957
  C        45.5631361195       27.7240717211       10.8527166173
  C        45.5335789439       27.7175131169        9.4314169103
  C        44.8274633900       28.7078723827        8.6784392269
  C        35.1346073057       26.6284451489        8.7317914429
  C        35.1162708000       26.6061423409       11.5415542554
  C        18.1484319628        3.2469258600       13.7015546965
  C        17.4297235813        4.3437760083       12.9923135547
  C        16.4148663528        4.0524099430       12.0683888853
  C        15.7664966385        5.0829986894       11.3929697915
  C        16.1206834198        6.4282906922       11.6161216755
  C        17.1115756925        6.7117435654       12.5738781853
  C        17.7593045149        5.6828828610       13.2536604453
  C        15.4902717039        7.5239952921       10.8436223765
  C        15.4965133429        7.5075367140        9.4224824343
  C        16.1933657775        6.5058838768        8.6757995265
  H        10.6722181193       12.4663369818       11.8990268939
  H        11.6942018041       10.5514670233       10.6571290552
  H        15.3906840689       11.1673366134       12.7681042607
  H        14.3502731727       13.0702929538       14.0134562671
  H        13.3755002843       11.6309084775        9.1961813728
  H        50.3229301330       22.7490629114       11.9823843557
  H        49.3196973051       24.6235137387       10.6763435079
  H        45.6414093954       24.1599333847       12.8575205705
  H        46.6623221471       22.2890792986       14.1657072343
  H        47.6296535078       23.5758278550        9.2410917861
  H        14.8710629455        8.5878312772       12.6034784463
  H        50.2873382357       22.7036177916        4.0644618720
  H        49.2691616241       24.5764104647        5.3645297648
  H        45.6093760007       24.1072955022        3.1527066084
  H        46.6515193448       22.2520713410        1.8385292713
  H        47.6075858181       23.5517453764        6.8019342898
  H        40.6445187959       17.0843025407        3.4122230104
  H        48.6866544893       14.0949337131       15.7948315256
  H        10.6811346493       12.4666149756        4.0982576195
  H        11.6892270262       10.5246694306        5.3020193125
  H        15.3931365639       11.1583297021        3.2103166164
  H        14.3645828372       13.0868387060        1.9948888792
  H        13.3752490703       11.6218708763        6.7581492375
  H        47.9301297778       14.2174336289        1.7159553746
  H        47.7795987299       14.3719449441       14.4894748797
  H        49.0822355655       18.5518147162        2.8719472410
  H        10.4152378369       14.1343843831        0.0037583921
  H        24.4882827369        3.0351416575       11.9142465489
  H        25.6263046058        4.8978988145       10.6913387026
  H        23.2415728522        7.7574612433       12.8444622888
  H        22.1220077152        5.8848748517       14.0687628446
  H        23.8036700643        5.8015149342        9.2686283846
  H        36.3780365944       32.1863965954       11.9595882122
  H        35.2539387508       30.3608919524       10.6808800950
  H        37.5110186600       27.4385484697       12.8870221659
  H        38.6157511802       29.2766707286       14.1740794628
  H        37.0287826493       29.4459014420        9.2699049721
  H        25.7343537782        8.6214338733       12.6488563225
  H        36.4588052501       32.2404548277        4.1198309140
  H        35.3482813351       30.4216755375        5.4151360433
  H        37.5279051189       27.4868243643        3.1470072134
  H        38.6134221620       29.3171507286        1.8394470100
  H        37.0495042314       29.4652120278        6.8319337751
  H        46.1085781183       26.5869883798        3.3906435422
  H        44.6682206434       35.1160595248       15.8088015132
  H        24.4296980424        3.0424435602        4.0986651706
  H        25.5559772244        4.8834481498        5.3519701722
  H        23.1561104230        7.7688774578        3.2512908523
  H        22.0413833444        5.9155705064        1.9983102082
  H        23.7786391960        5.8002057943        6.8299810868
  H        44.9539165679       34.3904917517        1.7002945385
  H        44.9017817163       34.2068654704       14.4853105156
  H        40.6658419293       33.2086165667        2.8580368957
  H        23.1505616421        1.9573960745        0.0107666709
  H        25.7487440936       19.7570758197       12.0333068067
  H        23.5899259681       19.7846681411       10.7800134614
  H        22.4186026278       16.1336853715       12.7269497952
  H        24.5933918835       16.1024459978       13.9589099553
  H        23.7362697615       17.7287096283        9.2337688756
  H        35.1289387233       15.4800211094       11.9336463288
  H        37.2577993036       15.4253472690       10.6409976945
  H        38.6963162648       18.8013584077       12.8867759056
  H        36.5639862176       18.8303304828       14.1925816328
  H        37.2199465469       17.3737769347        9.2238852624
  H        20.3653428549       17.9630216300       12.6640057226
  H        35.1803159428       15.4283685516        4.1040460774
  H        37.3031482788       15.3735609925        5.3726253684
  H        38.7338745196       18.7740017927        3.1547772986
  H        36.5943312597       18.8146070092        1.8631874449
  H        37.2332275271       17.3489850186        6.7855539030
  H        35.1502380586       26.6816441090        3.4003326793
  H        28.5145862823       21.0819743254       15.9680514192
  H        25.7419914452       19.6585523669        4.1295717103
  H        23.5572574742       19.7220070737        5.3441201615
  H        22.3071751770       16.1723207764        3.2628743297
  H        24.4908055889       16.1327467506        2.0410830294
  H        23.7101285788       17.7131468958        6.7982665747
  H        28.9959027812       21.7229839856        1.7714935110
  H        29.1427619745       21.7533145626       14.6067401209
  H        32.1245110074       18.5849699796        2.9640729887
  H        27.4114716924       19.0830307231        0.0861943548
  H        14.8476116855       19.6472654408        4.1464800703
  H        17.0097743603       19.6947659274        5.3902094500
  H        18.3024645338       16.1870667184        3.2630434727
  H        16.1358324715       16.1553925310        2.0193468246
  H        16.9254698930       17.6914485544        6.8555266962
  H        46.0946985854       15.4470648311        4.0774273864
  H        43.9673993303       15.3896636457        5.3816950741
  H        42.5444513466       18.8067785325        3.1905618793
  H        44.6724144680       18.8401561850        1.8767263699
  H        44.0191907533       17.3460996288        6.8270942151
  H        20.2890662892       17.9253802905        3.4264507750
  H        46.0416703097       15.4001183276       12.0116111274
  H        43.9128046258       15.3458707878       10.7140716368
  H        42.5188326637       18.7971424877       12.8691569008
  H        44.6542143600       18.8384288453       14.1672877967
  H        44.0052849370       17.3340692983        9.2664266224
  H        46.1987884210       26.6822843299       12.6182227487
  H        52.7408695710       21.0624973499        0.1997719288
  H        14.8850337245       19.6750816246       11.8935237705
  H        17.0863538731       19.7474221345       10.7156239821
  H        18.3349459132       16.2236146657       12.8420863010
  H        16.1356918097       16.1759186582       14.0296621396
  H        16.9484371702       17.7047834294        9.2931280175
  H        52.3217930677       21.6728990883       14.2892678951
  H        52.0126524704       21.7016070859        1.5007829090
  H        49.0665390666       18.6074839488       13.1990366079
  H        13.2470732499       19.0167498362       15.9721217248
  H        29.9564740981       12.4233304662        4.2050130647
  H        28.8854006986       10.4979980557        5.3812631423
  H        25.2251284076       11.2299355359        3.2447863761
  H        26.3129556557       13.1493868966        2.0642667287
  H        27.1820650498       11.6670087730        6.7946296015
  H        31.0038670609       22.7676419137        4.0276863023
  H        32.0162125217       24.6434998393        5.3280479440
  H        35.6953070164       24.1464547050        3.1558203741
  H        34.6625322073       22.2782871868        1.8504129626
  H        33.6912232697       23.5717805503        6.7607104204
  H        25.6910057973        8.5985544701        3.4128374622
  H        30.9334435786       22.7220767670       11.9459004088
  H        31.9609114840       24.5785171297       10.6317056893
  H        35.6124864609       24.1183937528       12.8585230484
  H        34.5686543717       22.2636344222       14.1708682930
  H        33.6642210453       23.5555414205        9.2008701526
  H        40.5921251583       17.0938086196       12.6419921994
  H        32.5284785793       14.1491761747        0.2605627540
  H        29.9065885346       12.5126461794       11.9320554221
  H        28.8699403149       10.6243383962       10.6688463400
  H        25.2018688287       11.1929767769       12.8422314689
  H        26.2565903434       13.0726462742       14.1110530381
  H        27.1814849546       11.6854832941        9.2318908681
  H        33.3040349083       14.2165014728       14.4354672573
  H        33.4034921155       14.3557034612        1.6401964003
  H        32.1158401325       18.5040866281       13.1505296316
  H        30.2386767683       14.1906074720        0.0723808368
  H        16.1186454256        2.9632287903        4.1352405673
  H        14.9534268990        4.8202826130        5.3279289084
  H        17.3655503349        7.6859068957        3.2147340574
  H        18.5143552172        5.8182706433        2.0149497887
  H        16.7537184428        5.7396811545        6.7767067637
  H        44.8286727796       32.1401086572        3.9817541624
  H        45.9378527097       30.3411592871        5.3111033900
  H        43.6818522911       27.3781360019        3.1579119382
  H        42.5992506690       29.1899403577        1.8153417386
  H        44.2307964127       29.4369641015        6.7739636515
  H        14.8506365316        8.5459096248        3.3684523835
  H        44.9001514486       32.2339693522       11.9269148532
  H        46.0250173602       30.4129460141       10.6474267050
  H        43.7632654780       27.4840078223       12.8400295970
  H        42.6455168812       29.3175660371       14.1190890792
  H        44.2689368283       29.4707621747        9.2129937054
  H        35.0719329711       26.6193051532       12.6289433115
  H        36.6049276923       35.1339436781        0.1857916825
  H        16.1441265518        3.0127845205       11.8983849708
  H        14.9743986303        4.8560360365       10.6826617624
  H        17.3944800455        7.7472906482       12.7512638117
  H        18.5417378285        5.8933202148       13.9789055700
  H        16.7647007891        5.7555812279        9.2142525550
  H        36.2780824488       34.4828006085       14.2679762360
  H        36.3801490601       34.2094624784        1.5050869535
  H        40.5800917362       33.2020835404       13.1486361302
  H        17.4705878262        1.9469906973       15.9690461160
  H        28.9630446961       19.1334971561        4.4804075529
  H        28.9135698955       18.6201535270       11.7449708050
  H        31.8500060522       15.8507236954       11.5132148331
  H        30.9910469193       15.3902497586        4.3198042373
  H        28.3756293918       17.3459228203        6.7787666377
  H        29.6732591477       15.0399684241        6.9453565202
  H        30.5203739052       20.0299293482       10.1186874969
  H        32.7495536540       17.7583042610        9.3264752048
  H        26.4804725786       17.7387546213       10.7632049857
  H        18.8527985021        0.8687065826        4.3403498644
  H        40.5277781201       35.2292829928       11.9470613082
  H        42.3239628642       34.4190005114       11.5856961532
  H        22.0878622637        0.6917477855        4.3567878378
  H        11.5970834190       18.7131168802        4.3873345778
  H        52.2647767751       18.4306073121       11.6724169500
  H        49.2547199903       16.4769652032       11.5795692753
  H        10.1501242354       15.7981355934        4.2981511857
  H        50.8495563087       17.6924243069       11.9493020510
  H        10.0459743001       17.3944160416        4.0571608502
  H        20.2139836558        0.0020437414        4.0472110763
  H        39.1833857679       36.1243840459       11.6813394574
 Ni        30.9916595649       17.8882498404       10.8303655956
 Ni        31.1544196594       16.4267718682        8.2400045536
 Ni        30.0159059210       18.6896920462        8.0762439558
 Ni        30.3102364785       17.4031387410        5.2515745068
  O        10.6497798742       14.3652217487       13.4806651400
  O        12.6132449833       14.6575023252       14.5786639812
  O        49.1479328228       16.8460481842       15.9845984768
  O        50.3502020975       20.9359412587       13.6430619567
  O        48.3486130829       20.5932691848       14.6608769291
  O        11.0512704035       17.0539862042       14.4954229867
  O        50.3209653733       20.8816821631        2.4119075848
  O        48.3466864014       20.5867969416        1.3321851913
  O        49.5436175065       18.2485116441        2.0733441350
  O        12.3589378513       18.6243669647        0.0049553770
  O        48.6931599486       14.1486853535       14.7461139594
  O         8.2098858575       14.2102739675        1.3276061108
  O        10.7354235737       14.5066966627        2.6694774889
  O        12.5717833767       14.5829751454        1.3335379871
  O        22.8448175778        2.0438801434       13.4819419387
  O        21.6053834356        3.5924008566       14.5847069232
  O        42.0581163988       34.1372470364       15.9738965563
  O        37.9818158027       33.1379905744       13.5674375378
  O        39.2181721786       31.5761943021       14.6615702948
  O        20.3083428383        1.0395352860       14.4968977501
  O        38.0248281413       33.1857112251        2.4204100242
  O        39.2193688616       31.5839417493        1.3315620294
  O        40.6523635058       33.7692226270        2.0653471651
  O        18.2554497130        1.3760444780        0.0017023112
  O        44.6222430473       35.1005809246       14.7536109847
  O        24.2053227400        0.0000405861        1.3259254964
  O        22.7530354902        2.0579795655        2.5890283217
  O        21.6243924773        3.5961303865        1.3474694387
  O        27.5016157572       18.7523341388       13.4854785239
  O        26.7631766611       16.9370268128       14.6477685000
  O        30.6699014285       19.3999690757        0.0663034346
  O        33.5400265303       16.3376089168       13.5794570266
  O        34.2751033854       18.1658755632       14.7253668690
  O        29.5753213870       17.0638811465       14.5726912372
  O        33.5603559996       16.3423502672        2.4191363025
  O        34.3015270850       18.2417078701        1.4108044553
  O        31.6533163395       18.3118814157        2.1605002695
  O        30.3257788878       15.1578835529        0.0865048992
  O        28.5545903193       21.0325428918       14.8957598785
  O        28.5138254778       20.9569782518        1.4161522619
  O        27.4568256575       18.6792926449        2.6638397995
  O        26.6941415294       16.9293324271        1.4176349564
  O        13.1488072396       18.6928520026        2.5926776324
  O        13.9196328027       16.9162492573        1.4103750471
  O        50.5956299684       19.3501503558        0.0254462897
  O        47.6837018512       16.3269011720        2.4221824942
  O        46.9518234818       18.1757529757        1.3296479415
  O        11.0696333143       17.0156170588        1.4948735379
  O        47.6743931217       16.3361587450       13.6473098578
  O        46.9261039615       18.2359619437       14.6587199301
  O        49.5681557374       18.3176877943       13.9770677320
  O        10.3184667811       15.1003005696        0.0021334530
  O        52.6708079464       21.0279926206        1.2469423547
  O        12.1468140408       20.8910401879       14.6679950785
  O        13.1090955399       18.6134034370       13.3201930571
  O        13.9575383166       16.9869207873       14.6602055258
  O        29.9896493638       14.4362379956        2.7296342787
  O        28.0881022840       14.6534292963        1.4976603582
  O        32.1393168103       16.8577472450        0.0698553533
  O        30.9662506841       20.9518635208        2.4141112126
  O        32.9474821411       20.6012072939        1.3439812398
  O        29.5684854769       17.0746627791        1.5792516212
  O        30.8736545192       20.9401339021       13.6551464878
  O        32.8785444051       20.5862484345       14.6617744154
  O        31.6794711662       18.2605235004       13.9864302715
  O        28.2935262535       18.6770492825        0.0786170134
  O        32.4907845620       14.2095155916        1.3310300047
  O        32.4067125783       14.2247168632       14.8091461008
  O        29.9191180923       14.4363583278       13.4901595263
  O        28.0375417555       14.5900148050       14.7517630692
  O        17.8891415271        1.9666336177        2.6679595156
  O        18.9561961368        3.5270428088        1.4130072547
  O        39.1687288212       34.1387876666        0.0023183524
  O        43.2801671485       33.0589713373        2.3367581625
  O        42.0345225333       31.5064940339        1.2467268632
  O        20.3175948019        1.0365696015        1.4854572290
  O        43.2759205070       33.1825541931       13.5697143389
  O        42.0051494075       31.5841479624       14.5777686138
  O        40.5790497900       33.7749266869       13.9306423131
  O        22.3672295174        1.3845068842        0.0027798784
  O        36.6727255742       35.0997749638        1.2384039678
  O        16.4455408595        0.0642777084       14.6631824675
  O        17.9366052434        2.0433394572       13.3213942052
  O        18.9190817854        3.5929239959       14.6608413509
  O        29.8142393318       18.8218845471       12.0669195516
  O        29.7848341536       18.9003498322        4.0064607955
  O        31.1654955150       16.3472552126       12.0006280010
  O        31.3090220969       16.2610428379        4.0059612122
  O        32.2200661937       17.0119473293        9.6693021508
  O        27.1597327966       17.5820348298       10.0826305739
  O        30.4224856095       15.6222090797        6.7388192726
  O        31.5139001558       17.9509092394        6.9090178300
  O        31.0378303732       19.3445381403        9.6542440676
  O        28.8974229913       18.1158852497        6.4955741113
  O        39.4567472383       35.2438450078       11.9969039486
  O        19.1408380905        0.0042623998        3.9956941218
  O        41.9698391654       35.1730984010       12.0821988579
  O        21.6911699344       -0.0693599515        3.9009083795
  O        51.3650564919       18.6142267092       12.0003969001
  O        10.7512131402       18.7473226693        3.9099770642
  O        50.0792937063       16.4128905799       12.0867072265
  O         9.5245232757       16.4830599906        3.9963484085
 Zr         9.2950790368       16.0529222495       14.1772151399
 Zr        49.8351097808       16.0067035915        1.7517368925
 Zr        22.0731081300        0.0291724711       14.1840724085
 Zr        42.4608565696       35.1528479948        1.8059594675
 Zr        29.6204536656       19.1078816899       14.2758452248
 Zr        29.5821595992       19.1764841320        1.8823537200
 Zr        11.0367643350       19.0521625250        1.8325627049
 Zr        11.0426894736       19.1548675788       14.2464783036
 Zr        31.3583225952       16.0989828585        1.8542637421
 Zr        31.3861245181       16.0315376280       14.2681588720
 Zr        18.6008111236       -0.0019567227        1.7684340197
 Zr        18.5062570102       -0.0083124745       14.2086134326
 Zr        12.3004697481       16.3235448686       15.9850531069
 Zr        48.6144642027       18.8327115962        0.0152512859
 Zr        20.3147511120        2.4725656443       15.9855642257
 Zr        40.6433036120       32.6863976616       15.9730651642
 Zr        28.3510914039       16.3480423421        0.0956498559
 Zr        32.6371315963       18.8459614567        0.0552113455
  H        32.3579151412       18.4234321483        6.8174534012
  O        28.6784953951       15.5366156502       10.9079702790
  H        29.5260904737       15.7323485105       11.3892290049
  H        28.3023139233       14.7559820137       11.3472531949
  O        33.4167569287       15.0963683906        5.6642331745
  H        32.6814974560       14.9025099291        6.2732562694
  H        32.9800533249       15.6757118105        5.0051169428
  O        28.2174459284       19.5626319913        8.7498096545
  H        27.7655694054       19.4771109794        7.8874780944
  H        27.7915842818       18.8403875408        9.3219663549
  H        27.7147093234       16.8085169545       10.4079368899
  H        30.5434137069       15.4728858319        9.1253316212
