     583
 i =      180, E =     -4830.5790620537
  C        11.8583884298       14.0535981542       13.7364673909
  C        12.4558540708       12.8904478462       13.0182419159
  C        11.7041952447       12.1717735952       12.0763818678
  C        12.2804912307       11.1095025262       11.3840241174
  C        13.6209425031       10.7394176980       11.6119546549
  C        14.3540032300       11.4426596822       12.5857480818
  C        13.7812000431       12.5076769482       13.2772668048
  C        14.2605677675        9.6488193264       10.8385317067
  C        14.2560587577        9.6567970868        9.4168194451
  C        13.7426911907       10.7588130646        8.6628900231
  C        49.1266143935       21.2332098276       13.8745923366
  C        48.5498228547       22.4010365855       13.1473924299
  C        49.3000295986       23.0687664282       12.1668120341
  C        48.7330708136       24.1078841492       11.4336147216
  C        47.4023435629       24.5090843794       11.6618971291
  C        46.6711341859       23.8597205066       12.6748885849
  C        47.2336184562       22.8148137191       13.4042201318
  C        46.7721858494       25.5868638393       10.8646577448
  C        46.7612803157       25.5573384603        9.4428975947
  C        47.2611045334       24.4421723185        8.6994395059
  C        14.8602455694        8.5705819786        8.7035624951
  C        14.8913580554        8.5968662521       11.5151736800
  C        49.1129487952       21.2033153615        2.1504524211
  C        48.5274830617       22.3645133979        2.8777962290
  C        49.2669480625       23.0257894307        3.8701565297
  C        48.6905793199       24.0603115256        4.6016256191
  C        47.3599147346       24.4565102913        4.3638662253
  C        46.6391428334       23.8109106032        3.3410565847
  C        47.2127376665       22.7749941116        2.6093029254
  C        46.7215843097       25.5316122736        5.1548305039
  C        46.7334444095       25.5281056394        6.5765255158
  C        47.2488045222       24.4288444093        7.3328878727
  C        40.6233865371       17.1033829112        7.3099177819
  C        40.6399947038       17.1246437995        4.5000990620
  C        11.8827706970       14.0865234546        2.2904467136
  C        12.4720876653       12.9105434833        2.9946279057
  C        11.7145466226       12.1774248883        3.9207643495
  C        12.2810670472       11.0949582501        4.5892673336
  C        13.6198575297       10.7211604187        4.3574496032
  C        14.3578233837       11.4365311432        3.3964891763
  C        13.7924254390       12.5176802170        2.7237304428
  C        14.2535215483        9.6244690033        5.1279185779
  C        14.2523204416        9.6444608245        6.5497659336
  C        13.7421859843       10.7532857701        7.2968428619
  C        22.5128162888        3.2442435597       13.7485662788
  C        23.2300993630        4.3488186073       13.0502210084
  C        24.2276523120        4.0668526886       12.1051851212
  C        24.8578959771        5.1050710568       11.4241227399
  C        24.5064328277        6.4475434873       11.6681209592
  C        23.5369693084        6.7210719566       12.6501214600
  C        22.9020497434        5.6845725826       13.3296203556
  C        25.1156283686        7.5524911671       10.8927809950
  C        25.0860584803        7.5469592631        9.4713699894
  C        24.3775112485        6.5510870386        8.7268337125
  C        38.3026617827       31.9300806791       13.8444033877
  C        37.5729784697       30.8405124570       13.1353461477
  C        36.6133290297       31.1440773610       12.1576570342
  C        35.9964502097       30.1234371678       11.4396947327
  C        36.3246352430       28.7745458591       11.6782233242
  C        37.2546428044       28.4784022867       12.6923868612
  C        37.8756769629       29.4977660585       13.4090885770
  C        35.7225128759       27.6826653326       10.8814140310
  C        35.7532055488       27.6975013757        9.4601535661
  C        36.4594133380       28.6995578422        8.7228225078
  C        25.7129665623        8.6143169054        8.7507549855
  C        25.7176619156        8.6245521835       11.5629143856
  C        38.3287519984       31.9619453159        2.1615972392
  C        37.6071614281       30.8887155651        2.9039541899
  C        36.6788651034       31.1976480164        3.9099655205
  C        36.0685408955       30.1793632849        4.6397259531
  C        36.3720014643       28.8265404285        4.3869802908
  C        37.2781173077       28.5275815952        3.3510632242
  C        37.8906353403       29.5423959543        2.6226324712
  C        35.7636340327       27.7275301251        5.1713705868
  C        35.7743224951       27.7203173353        6.5934390315
  C        36.4691605229       28.7107033604        7.3563099431
  C        46.1356495644       26.6208773585        7.2866252721
  C        46.0876229840       26.5799178344        4.4787220284
  C        22.4603679785        3.2562101223        2.2639364531
  C        23.1530712302        4.3649716242        2.9888170994
  C        24.1532495258        4.0786847597        3.9316668039
  C        24.7804873058        5.1084925012        4.6289516512
  C        24.4282046437        6.4548088329        4.4060090685
  C        23.4507045377        6.7343251500        3.4320896336
  C        22.8186490471        5.7046938805        2.7355003567
  C        25.0609594796        7.5524374304        5.1797735047
  C        25.0585095812        7.5458564065        6.6026930064
  C        24.3627439009        6.5515206521        7.3602896770
  C        26.6211692281       17.8592364719       13.7803541535
  C        25.3160935254       17.9023718276       13.0504212020
  C        25.0417328158       18.9233983641       12.1248519495
  C        23.8314246597       18.9414412449       11.4323489606
  C        22.8555777234       17.9467646294       11.6494399760
  C        23.1263126951       16.9489861856       12.6042970761
  C        24.3400259414       16.9225405536       13.2907617840
  C        21.5804750858       17.9373957621       10.8872337156
  C        21.5810133470       17.9276304735        9.4649880525
  C        22.7872946494       17.8185885661        8.7034645430
  C        34.4223595780       17.2213563291       13.8771571655
  C        35.7175483141       17.1579008893       13.1432072269
  C        35.9126622453       16.1997440263       12.1361494737
  C        37.0985830967       16.1755975512       11.4085601998
  C        38.1195187262       17.1121654587       11.6627398868
  C        37.9269872731       18.0495457075       12.6961480466
  C        36.7407053791       18.0760890849       13.4252156249
  C        39.3731673074       17.1192607651       10.8756517751
  C        39.3668684018       17.1255616721        9.4530118311
  C        38.1587878983       17.2296738763        8.6934734707
  C        20.3336313699       17.9423212085        8.7579077430
  C        20.3567755778       17.9324898468       11.5717306887
  C        34.4510355709       17.2339769039        2.1848987021
  C        35.7576652568       17.1276210977        2.8956216929
  C        35.9852423447       16.1212273369        3.8468533500
  C        37.1722264768       16.1034886055        4.5759320327
  C        38.1625978845       17.0812304848        4.3668184483
  C        37.9464631442       18.0567948006        3.3750397549
  C        36.7564112918       18.0857067293        2.6546773891
  C        39.4092325893       17.1024507225        5.1648373267
  C        39.3859444552       17.1126399801        6.5861109042
  C        38.1669042576       17.2172490453        7.3268779336
  C        35.1434557968       26.6413242402        7.2976944391
  C        35.1723565122       26.6573555408        4.4886883733
  C        26.5714716722       17.8262274355        2.3307514833
  C        25.2556976430       17.8801593271        3.0319289572
  C        24.9865102740       18.8966470412        3.9607106129
  C        23.7682599449       18.9260286586        4.6332592240
  C        22.7903129993       17.9388992104        4.4004118996
  C        23.0525955603       16.9478284017        3.4371523938
  C        24.2714853935       16.9163359342        2.7628260539
  C        21.5279411257       17.9218033880        5.1755601320
  C        21.5540197100       17.9172962804        6.5970659525
  C        22.7746044852       17.8129238882        7.3372142955
  C        14.0459750419       17.8290790887        2.2934164898
  C        15.3506127584       17.8872471381        3.0187630986
  C        15.6059036808       18.8911904193        3.9658000155
  C        16.8148897345       18.9138688421        4.6585291079
  C        17.8025003047       17.9355590528        4.4257341326
  C        17.5518804784       16.9555240933        3.4468504326
  C        16.3421739920       16.9282289804        2.7559156297
  C        19.0720787307       17.9216973324        5.1936307879
  C        19.0723267987       17.9194203698        6.6160201768
  C        17.8662041097       17.8160392293        7.3781163963
  C        46.8042458842       17.2173427064        2.1624456858
  C        45.5133273560       17.1522333405        2.9041587993
  C        45.3101973360       16.1772051247        3.8930176335
  C        44.1269637886       16.1562476424        4.6260403043
  C        43.1171238522       17.1099882750        4.3919703633
  C        43.3171322281       18.0635352843        3.3755005101
  C        44.5012997519       18.0888279202        2.6436239509
  C        41.8638170093       17.1179712808        5.1793240550
  C        41.8698281312       17.1224861518        6.6010898739
  C        43.0782335868       17.2291298462        7.3590335846
  C        20.3196722408       17.9357940991        7.3231296942
  C        20.2955258152       17.9044429327        4.5102288804
  C        46.7836451625       17.2328498782       13.8804129633
  C        45.4821725817       17.1304577011       13.1602813033
  C        45.2660444466       16.1380840307       12.1916913789
  C        44.0787257016       16.1132848495       11.4637842756
  C        43.0759713809       17.0775840328       11.6859821872
  C        43.2831528685       18.0401023361       12.6920786246
  C        44.4716433035       18.0715512628       13.4151784787
  C        41.8285974848       17.0987410676       10.8892607632
  C        41.8517061528       17.1123557507        9.4678720739
  C        43.0697471385       17.2211202552        8.7257501341
  C        46.1534414811       26.6373269885        8.7211676010
  C        46.1622742080       26.6559676821       11.5308169282
  C        14.0459451169       17.8309828253       13.7029071226
  C        15.3677645763       17.9037019685       13.0110938803
  C        15.6436959835       18.9202629654       12.0844702452
  C        16.8731613976       18.9568522869       11.4299102535
  C        17.8552535876       17.9758999671       11.6754462747
  C        17.5858309324       16.9875188543       12.6396507929
  C        16.3583893862       16.9506530813       13.2979211563
  C        19.1232005950       17.9528064831       10.9061184104
  C        19.0991213627       17.9343002943        9.4842820397
  C        17.8791009842       17.8228538099        8.7441266086
  C        28.8071438633       14.0870942565        2.3914954016
  C        28.1945439282       12.9138013880        3.0788940615
  C        28.9267292839       12.1603354849        4.0087025397
  C        28.3280704453       11.0869771017        4.6637956621
  C        26.9849238695       10.7422965180        4.4111681060
  C        26.2744762483       11.4752221945        3.4436680224
  C        26.8700993242       12.5498773159        2.7882157564
  C        26.3182870780        9.6623154977        5.1747786543
  C        26.3150076681        9.6858337271        6.5960321525
  C        26.8305378309       10.7937420327        7.3409670289
  C        32.1808133064       21.2400241101        2.1524644865
  C        32.7723713711       22.4068404538        2.8699672294
  C        32.0279726874       23.0758925775        3.8535959592
  C        32.5979215122       24.1155590021        4.5813189487
  C        33.9285075661       24.5132139840        4.3476278225
  C        34.6553954669       23.8620943665        3.3329693030
  C        34.0876977701       22.8175970897        2.6061971835
  C        34.5577125758       25.5874772929        5.1485540079
  C        34.5503930991       25.5577644166        6.5703530000
  C        34.0414408760       24.4428267326        7.3091116724
  C        25.7029479434        8.6101192424        7.3160181285
  C        25.6754847927        8.6146403807        4.5026216959
  C        32.1034775860       21.2273733782       13.8783843567
  C        32.6932930513       22.3811237169       13.1378551249
  C        31.9553145929       23.0471651376       12.1472584507
  C        32.5359603712       24.0753274604       11.4085479751
  C        33.8680186006       24.4683127823       11.6439936453
  C        34.5886322423       23.8168300437       12.6631374724
  C        34.0130099130       22.7822329659       13.3960132078
  C        34.5083560727       25.5488229784       10.8588559960
  C        34.5237858393       25.5390799813        9.4370258743
  C        34.0271307834       24.4344500191        8.6758352540
  C        40.6137256577       17.1038374117        8.7446048912
  C        40.5976246326       17.1208748920       11.5544113323
  C        28.7565247845       14.0552803504       13.8309181327
  C        28.1547982332       12.8999021936       13.0990288250
  C        28.8903813801       12.2113675575       12.1209382625
  C        28.3094545576       11.1600653953       11.4164993633
  C        26.9770131078       10.7712949777       11.6621707722
  C        26.2583904854       11.4473597774       12.6667354673
  C        26.8369274328       12.4987362935       13.3744798899
  C        26.3338143611        9.6848073892       10.8851142408
  C        26.3246542511        9.6986270844        9.4629429583
  C        26.8329401580       10.8017666415        8.7071218319
  C        18.1353931631        3.1809999343        2.3222206088
  C        17.4061020078        4.2782357976        3.0208475548
  C        16.3905487682        3.9998663615        3.9485452011
  C        15.7428330693        5.0398343754        4.6120714303
  C        16.0945927136        6.3835728200        4.3722505916
  C        17.0837985382        6.6530941518        3.4083005742
  C        17.7328943122        5.6157682976        2.7432326162
  C        15.4702485128        7.4912679975        5.1352752984
  C        15.4856386828        7.4906484024        6.5569827288
  C        16.1873519767        6.4971577633        7.3101703704
  C        42.9459747800       31.8594634794        2.0780630676
  C        43.6463545247       30.7718503977        2.8218975724
  C        44.5920130610       31.0931573330        3.8078735356
  C        45.1976894419       30.0875861476        4.5555090705
  C        44.8711619258       28.7345141135        4.3407621531
  C        43.9452710506       28.4202110849        3.3275821806
  C        43.3364813604       29.4253520127        2.5795313971
  C        45.4886937502       27.6552163711        5.1439823697
  C        45.4930476956       27.6810389587        6.5656706900
  C        44.8061850356       28.6892355068        7.3122972448
  C        14.8565215526        8.5630623179        7.2693312401
  C        14.8747743739        8.5629252933        4.4566740139
  C        42.9465329360       31.9614758835       13.8038800148
  C        43.6917990267       30.8854379475       13.0905182384
  C        44.6563721088       31.1913762317       12.1181802739
  C        45.2779097687       30.1718042384       11.4004751104
  C        44.9541635059       28.8214517406       11.6380573996
  C        44.0207769454       28.5237712222       12.6489409357
  C        43.3924974572       29.5405062599       13.3611330210
  C        45.5631789161       27.7240898714       10.8527671729
  C        45.5336026414       27.7175518971        9.4314647245
  C        44.8274658355       28.7078916556        8.6784818001
  C        35.1314064970       26.6306546777        8.7324298385
  C        35.1188858506       26.6070570338       11.5423243151
  C        18.1486302392        3.2470108095       13.7015094357
  C        17.4299198570        4.3438343244       12.9923202345
  C        16.4149714926        4.0525205922       12.0684726305
  C        15.7666240968        5.0831141871       11.3930642294
  C        16.1209587232        6.4283914918       11.6160661405
  C        17.1119925499        6.7118079360       12.5736758072
  C        17.7597140531        5.6829323953       13.2534490025
  C        15.4904612462        7.5240731019       10.8436063221
  C        15.4965545999        7.5075399839        9.4224693612
  C        16.1935314130        6.5059794624        8.6757761512
  H        10.6721249301       12.4660771209       11.8992461657
  H        11.6941307274       10.5511695430       10.6574228873
  H        15.3908765202       11.1676686711       12.7677793121
  H        14.3504764621       13.0706114229       14.0130667963
  H        13.3752577330       11.6307602489        9.1961993085
  H        50.3228678975       22.7489976687       11.9823573947
  H        49.3196188344       24.6234626565       10.6763004345
  H        45.6414133660       24.1599829434       12.8576127078
  H        46.6623481584       22.2890739198       14.1657803757
  H        47.6293909694       23.5757041938        9.2411562641
  H        14.8714252471        8.5879876715       12.6034750874
  H        50.2872043582       22.7033680472        4.0646398307
  H        49.2690782310       24.5761865341        5.3647632517
  H        45.6094322533       24.1074690405        3.1525889764
  H        46.6515806079       22.2521910665        1.8384130371
  H        47.6073253244       23.5516234243        6.8019755208
  H        40.6459139696       17.0923912140        3.4122581634
  H        48.6866752136       14.0949004998       15.7948383097
  H        10.6810744457       12.4665429354        4.0981405497
  H        11.6891608013       10.5246169079        5.3019184818
  H        15.3931943705       11.1584626272        3.2104934709
  H        14.3646700112       13.0869240659        1.9950287375
  H        13.3749816994       11.6217250127        6.7581809297
  H        47.9301202502       14.2174945678        1.7159217245
  H        47.7796065610       14.3719600857       14.4894729877
  H        49.0823290678       18.5518501596        2.8719288561
  H        10.4152623058       14.1343675754        0.0036652801
  H        24.4866827904        3.0277373459       11.9146314644
  H        25.6314177825        4.8860825076       10.6912147447
  H        23.2580512228        7.7545859488       12.8447176357
  H        22.1313870479        5.8864087712       14.0695636286
  H        23.8144591060        5.7966709182        9.2685045282
  H        36.3760551184       32.1872286782       11.9625815868
  H        35.2519317873       30.3617804154       10.6832919595
  H        37.5154133075       27.4394192625       12.8830521534
  H        38.6196045634       29.2776019190       14.1710301130
  H        37.0253117958       29.4488103724        9.2687506248
  H        25.7535273932        8.6067169600       12.6506956703
  H        36.4565299362       32.2419404624        4.1174526071
  H        35.3433637066       30.4247064545        5.4124828108
  H        37.5247387037       27.4872951713        3.1492289192
  H        38.6127247702       29.3163192290        1.8418339793
  H        37.0434430804       29.4681729035        6.8306932220
  H        46.1088113869       26.5870973461        3.3906804419
  H        44.6683787345       35.1161437291       15.8087686068
  H        24.4303104908        3.0403740460        4.0994862594
  H        25.5601034057        4.8788984504        5.3521842492
  H        23.1666551523        7.7689321586        3.2506407035
  H        22.0483744496        5.9182070141        1.9979939930
  H        23.7875066574        5.7980421133        6.8300571843
  H        44.9542453650       34.3907782630        1.7004795600
  H        44.9021041254       34.2069459606       14.4853848840
  H        40.6661642938       33.2090603395        2.8582541370
  H        23.1506758218        1.9576435505        0.0108679937
  H        25.7840364629       19.7056712922       11.9752778476
  H        23.6236175424       19.7386437743       10.7215722010
  H        22.3848775787       16.1721113604       12.7801401008
  H        24.5579240822       16.1397804891       14.0138244509
  H        23.7305852090       17.7060282833        9.2300685298
  H        35.1185896829       15.4871655467       11.9277123474
  H        37.2469792510       15.4234485469       10.6369549577
  H        38.7069981537       18.7808354416       12.8977005507
  H        36.5770810858       18.8138268010       14.2073475212
  H        37.2166896897       17.3450469592        9.2213910017
  H        20.3647243921       17.9646166897       12.6598720858
  H        35.2235979026       15.3683268888        4.0340909066
  H        37.3367784376       15.3261225150        5.3189021703
  H        38.7059147478       18.8175623408        3.2070019334
  H        36.5660159696       18.8592327578        1.9147486748
  H        37.2312377474       17.3160979018        6.7835590745
  H        35.1436301354       26.6837597449        3.4010289157
  H        28.5148562867       21.0756411573       15.9548189015
  H        25.7441935711       19.6559154924        4.1392301019
  H        23.5599383133       19.7171586959        5.3502504625
  H        22.3052225993       16.1790353946        3.2519502411
  H        24.4908456861       16.1387574968        2.0350573306
  H        23.7077767047       17.6972797553        6.7937006531
  H        29.0014444056       21.7220741286        1.7655344405
  H        29.1617272435       21.7424439970       14.6095741767
  H        32.1352348791       18.5565506959        2.9724485158
  H        27.4110450655       19.0784819649        0.0934867674
  H        14.8462915805       19.6491440604        4.1436318600
  H        17.0093376066       19.6985968180        5.3864928539
  H        18.3040567989       16.1921327208        3.2586260051
  H        16.1366157844       16.1585186851        2.0157853773
  H        16.9237592533       17.6980817457        6.8512083954
  H        46.0965390373       15.4497725794        4.0801910910
  H        43.9695817257       15.3930941668        5.3850382775
  H        42.5447593041       18.8070866071        3.1901158946
  H        44.6724079037       18.8396100447        1.8757450408
  H        44.0188594041       17.3489838520        6.8291386054
  H        20.2881931200       17.9310163054        3.4220307192
  H        46.0438607272       15.3995437504       12.0112909718
  H        43.9150413419       15.3422758330       10.7140110947
  H        42.5151351377       18.7895984058       12.8715423919
  H        44.6507314290       18.8341023704       14.1692021045
  H        44.0039243888       17.3333498467        9.2684129622
  H        46.1989423921       26.6823504922       12.6182718256
  H        52.7408366051       21.0624771420        0.1997556769
  H        14.8847603226       19.6759142471       11.8937710108
  H        17.0852547834       19.7486644872       10.7146472091
  H        18.3342173120       16.2227904015       12.8372861026
  H        16.1359199145       16.1746871243       14.0263848738
  H        16.9464445122       17.7101465449        9.2886742737
  H        52.3215751335       21.6728167333       14.2893405414
  H        52.0124634915       21.7014655402        1.5006541034
  H        49.0665124593       18.6073136467       13.1989399413
  H        13.2470659467       19.0166462617       15.9717984988
  H        29.9631699747       12.4281596495        4.2030027098
  H        28.8969632607       10.5020450215        5.3833602152
  H        25.2366311306       11.2182592444        3.2418281740
  H        26.3196587214       13.1378135641        2.0578293030
  H        27.1988457741       11.6603198468        6.8000892646
  H        31.0074211071       22.7533119902        4.0438679146
  H        32.0161670758       24.6338596834        5.3402848850
  H        35.6855380025       24.1593306181        3.1475248167
  H        34.6548645569       22.2891625203        1.8433366394
  H        33.6851806297       23.5730417520        6.7644501979
  H        25.7000958620        8.5975601557        3.4144519862
  H        30.9284327100       22.7386455652       11.9648659688
  H        31.9583009628       24.5923780775       10.6454607283
  H        35.6198387841       24.1094277025       12.8498414623
  H        34.5751071110       22.2555432294       14.1636910725
  H        33.6604049270       23.5582678846        9.2033793447
  H        40.5910585285       17.0842219669       12.6421418748
  H        32.5246664111       14.1513924039        0.2634023848
  H        29.9158139297       12.5171949270       11.9269111539
  H        28.8876154949       10.6235938272       10.6673299161
  H        25.2276628028       11.1595035116       12.8632781881
  H        26.2792884713       13.0359960691       14.1381394159
  H        27.2026500526       11.6754130261        9.2364764013
  H        33.3035477140       14.2130220214       14.4360646329
  H        33.4038211831       14.3607197534        1.6362799661
  H        32.1633656177       18.5214058409       13.1888822462
  H        30.2335106975       14.1922074749        0.0764034321
  H        16.1185843970        2.9633533166        4.1350360263
  H        14.9534525352        4.8204499997        5.3278077961
  H        17.3660388506        7.6859905801        3.2150332393
  H        18.5147980835        5.8184023672        2.0152379265
  H        16.7540094245        5.7398857572        6.7766803274
  H        44.8284392057       32.1402108661        3.9820173409
  H        45.9376542027       30.3413098578        5.3113651697
  H        43.6825122574       27.3781506283        3.1574946625
  H        42.5998714095       29.1899593231        1.8148809781
  H        44.2309196888       29.4370769035        6.7740056533
  H        14.8508538927        8.5460564525        3.3684574794
  H        44.8999417918       32.2340481530       11.9267326464
  H        46.0248124671       30.4130604562       10.6472447511
  H        43.7638947032       27.4840266147       12.8405468607
  H        42.6461297199       29.3175999515       14.1196717184
  H        44.2690512911       29.4708651300        9.2130326724
  H        35.0772790275       26.6193284447       12.6298223290
  H        36.6051778169       35.1340545617        0.1857370358
  H        16.1441195030        3.0129185591       11.8985480639
  H        14.9744704613        4.8562262044       10.6828021759
  H        17.3951164009        7.7473229371       12.7508806362
  H        18.5423269129        5.8934020383       13.9784912474
  H        16.7650292831        5.7557916941        9.2142181412
  H        36.2786834081       34.4825315996       14.2680271285
  H        36.3811490740       34.2090705684        1.5047560734
  H        40.5805884944       33.2025882187       13.1486070808
  H        17.4708950180        1.9474103741       15.9691069523
  H        28.7790817395       18.9517409354        4.3941399375
  H        28.8925393674       18.6741871308       11.6374265312
  H        31.8485962988       15.8082551595       11.5210225936
  H        31.1502601796       15.4667998286        4.4159811382
  H        28.4192912552       17.3665049848        7.1889647917
  H        29.9245336887       15.0329661956        6.7558563483
  H        30.4266073746       20.0753086449       10.1718514132
  H        33.0588272087       17.6792733287        9.1770137006
  H        26.8427090634       18.1823737111       10.3758973014
  H        18.8533868330        0.8690332090        4.3402626439
  H        40.5279404913       35.2288094243       11.9469099920
  H        42.3241945090       34.4188310845       11.5852993497
  H        22.0878287900        0.6915382056        4.3570765527
  H        11.5970533434       18.7128926694        4.3872410145
  H        52.2647128011       18.4308524829       11.6723337081
  H        49.2555407042       16.4767107068       11.5790632935
  H        10.1499444622       15.7980958646        4.2981773554
  H        50.8496582491       17.6922452622       11.9492983668
  H        10.0458380358       17.3943377401        4.0571513124
  H        20.2146436885        0.0021298341        4.0471386081
  H        39.1837104553       36.1244436775       11.6813907126
 Ni        31.0292648147       17.8649052314       10.7461551854
 Ni        31.1098345651       16.5000822114        8.3288167049
 Ni        30.1823973181       18.7982593373        7.9907000022
 Ni        30.2702325686       17.3743267055        5.4125594410
  O        10.6497668098       14.3651148693       13.4807000306
  O        12.6131326770       14.6575499768       14.5787178282
  O        49.1479195805       16.8460267245       15.9845707529
  O        50.3502039065       20.9359722421       13.6430384208
  O        48.3485187209       20.5933261317       14.6608162480
  O        11.0512805745       17.0539475609       14.4953912650
  O        50.3209481944       20.8817128055        2.4118708620
  O        48.3467090820       20.5867535330        1.3321495998
  O        49.5436153570       18.2484657988        2.0733087319
  O        12.3588449710       18.6244495350        0.0047526869
  O        48.6931640886       14.1487113671       14.7461247777
  O         8.2098879719       14.2103421934        1.3275945441
  O        10.7353937777       14.5067398876        2.6694581800
  O        12.5718260929       14.5828708395        1.3335601869
  O        22.8445898305        2.0430277812       13.4820712602
  O        21.6058468802        3.5925117236       14.5843351880
  O        42.0582307048       34.1374277522       15.9739584124
  O        37.9818117268       33.1382821543       13.5675340670
  O        39.2182276439       31.5763520669       14.6617109629
  O        20.3085152699        1.0396875627       14.4970444342
  O        38.0245936398       33.1856965946        2.4203480342
  O        39.2190057093       31.5836063509        1.3316897731
  O        40.6522942686       33.7693656279        2.0653624144
  O        18.2555396117        1.3761844838        0.0019341289
  O        44.6221991305       35.1005522475       14.7536225129
  O        24.2053704174        0.0000668423        1.3259113046
  O        22.7530518625        2.0580553417        2.5891962060
  O        21.6247171126        3.5964307853        1.3482744461
  O        27.4929017486       18.7527261598       13.4917330371
  O        26.7647849371       16.9321288838       14.6486300118
  O        30.6646496626       19.4013135384        0.0722500979
  O        33.5413109498       16.3371386462       13.5828643681
  O        34.2734932188       18.1672554345       14.7262730120
  O        29.5763411051       17.0631055633       14.5728943338
  O        33.5598232042       16.3419033814        2.4225191932
  O        34.3001676797       18.2412034637        1.4120805575
  O        31.6498500212       18.3151096550        2.1674020557
  O        30.3248092423       15.1591347268        0.0875692958
  O        28.5544145920       21.0338260296       14.8896482240
  O        28.5153852601       20.9546033619        1.4189759963
  O        27.4637558393       18.6761720113        2.6692222231
  O        26.6942763467       16.9315032756        1.4189855344
  O        13.1485952061       18.6931072341        2.5924490563
  O        13.9195293083       16.9162020780        1.4101136206
  O        50.5956503005       19.3501094326        0.0252954000
  O        47.6838476405       16.3269353676        2.4220700635
  O        46.9518798258       18.1757544506        1.3295474857
  O        11.0695807395       17.0155632290        1.4947968927
  O        47.6745625091       16.3361086222       13.6473247548
  O        46.9257967889       18.2358821390       14.6584761640
  O        49.5682037318       18.3176744130       13.9769806370
  O        10.3184580064       15.1002809368        0.0021379065
  O        52.6707168210       21.0278979722        1.2469354315
  O        12.1468330120       20.8910568863       14.6679974526
  O        13.1091492584       18.6134882337       13.3201748494
  O        13.9578528292       16.9870242318       14.6599825910
  O        29.9914943038       14.4365409369        2.7279245888
  O        28.0878174817       14.6548981219        1.4976077632
  O        32.1371796791       16.8561944129        0.0757477197
  O        30.9652608311       20.9482939304        2.4190537156
  O        32.9461667469       20.6029768017        1.3461220122
  O        29.5671972855       17.0798261909        1.5825179158
  O        30.8742206882       20.9434474577       13.6551189392
  O        32.8788782778       20.5858447893       14.6618652390
  O        31.6769177946       18.2633793137       13.9884828375
  O        28.2954707725       18.6776934264        0.0806816599
  O        32.4899757770       14.2111016050        1.3327375519
  O        32.4063248621       14.2245269787       14.8098593880
  O        29.9229385653       14.4411344176       13.4865779254
  O        28.0409796393       14.5873314724       14.7490127716
  O        17.8892602512        1.9666526199        2.6679015828
  O        18.9562866315        3.5271402746        1.4130815513
  O        39.1686483745       34.1388020023        0.0023444901
  O        43.2802232473       33.0589755864        2.3367979675
  O        42.0345213002       31.5064748036        1.2467494390
  O        20.3177768906        1.0368356752        1.4852824102
  O        43.2760211520       33.1825541666       13.5698254104
  O        42.0052434697       31.5841051633       14.5778914643
  O        40.5790403231       33.7749641121       13.9309400342
  O        22.3673709236        1.3846696919        0.0030728195
  O        36.6727840180       35.0997743683        1.2384051694
  O        16.4455837613        0.0643341558       14.6632316668
  O        17.9364884172        2.0434062760       13.3213089984
  O        18.9190865011        3.5931533163       14.6608543803
  O        29.7553084805       18.8352176999       12.0836327320
  O        29.7293602855       18.9744287115        4.1602927936
  O        31.2323107027       16.3961352209       11.9991608070
  O        31.2593772005       16.3472366108        4.0054762701
  O        32.4895596994       16.9957521961        9.5762980749
  O        27.7547483305       18.0226861883       10.0799150411
  O        30.6332155367       15.6782156897        6.5950730136
  O        31.6009375787       18.1064668979        6.7453607730
  O        30.9258962645       19.4176726854        9.6515776352
  O        28.8893408224       18.0921321324        6.7409113699
  O        39.4567013796       35.2437517552       11.9968810111
  O        19.1412630282        0.0045122238        3.9956449478
  O        41.9693737706       35.1724072414       12.0820714216
  O        21.6911450811       -0.0695212811        3.9010753255
  O        51.3649814893       18.6142541637       12.0004232656
  O        10.7511372464       18.7472759255        3.9099832807
  O        50.0798955814       16.4128978748       12.0865832157
  O         9.5243467494       16.4830115892        3.9963422760
 Zr         9.2951561701       16.0528550841       14.1771735427
 Zr        49.8352216577       16.0066674895        1.7517340373
 Zr        22.0733554423        0.0296523900       14.1839217681
 Zr        42.4611352702       35.1533790502        1.8061876528
 Zr        29.5982625887       19.0997456452       14.2387171792
 Zr        29.5927905302       19.1795676779        1.8817708468
 Zr        11.0367902338       19.0519893444        1.8325223889
 Zr        11.0428100146       19.1547775708       14.2463131185
 Zr        31.3482766038       16.0969684129        1.8749892879
 Zr        31.3896596310       16.0319040192       14.2738366261
 Zr        18.6012748402       -0.0013149289        1.7684104282
 Zr        18.5066575980       -0.0074660761       14.2087388924
 Zr        12.3006592856       16.3235376164       15.9850026710
 Zr        48.6145181896       18.8326236253        0.0150893214
 Zr        20.3154211239        2.4735210003       15.9855349228
 Zr        40.6438208972       32.6870235028       15.9732781222
 Zr        28.3525326356       16.3475911267        0.0909691447
 Zr        32.6241769136       18.8427662795        0.0561055599
  H        32.2113978490       18.8208618539        6.4932656035
  O        28.4563351943       15.4641031862       10.9166008957
  H        29.3126064461       15.5829563450       11.3836399408
  H        27.9011466562       14.9659980800       11.5399466724
  O        33.4186049789       15.0952998392        5.6630229012
  H        32.5835816346       15.0786564695        6.1722780627
  H        33.2189679378       15.7698521382        4.9872652158
  O        30.2842359689       20.5239555227        6.4970610272
  H        30.1097631550       20.0601378084        5.6254068827
  H        29.5805784830       21.1894912531        6.5648329851
  H        27.9355575696       17.0774350091       10.3336939639
  H        30.0441223277       15.9538218360        9.2800908518
