     583
 i =      199, E =     -4830.6064806944
  C        11.8584827192       14.0535324344       13.7364656481
  C        12.4559222213       12.8904138902       13.0183028748
  C        11.7043480659       12.1718307027       12.0762902687
  C        12.2806666215       11.1095801850       11.3839405104
  C        13.6210898695       10.7394188044       11.6119730176
  C        14.3540580558       11.4425560619       12.5859196033
  C        13.7812375765       12.5075643137       13.2774326281
  C        14.2607111103        9.6488313936       10.8385413769
  C        14.2561430346        9.6568102328        9.4168310303
  C        13.7428372639       10.7588490965        8.6628936762
  C        49.1266556672       21.2332433657       13.8745691083
  C        48.5499471011       22.4011207325       13.1474993966
  C        49.3000437533       23.0685796348       12.1666308964
  C        48.7331129994       24.1077207876       11.4334557990
  C        47.4024928092       24.5092076999       11.6619355404
  C        46.6714517604       23.8601690264       12.6752779061
  C        47.2338906275       22.8152404221       13.4046048186
  C        46.7723363668       25.5869589741       10.8646653021
  C        46.7614269428       25.5573894329        9.4429029960
  C        47.2612927151       24.4422578489        8.6994220035
  C        14.8602581267        8.5705658873        8.7035575883
  C        14.8915256768        8.5968836279       11.5151746382
  C        49.1129673460       21.2033815065        2.1504225425
  C        48.5275524176       22.3645873007        2.8776821111
  C        49.2669265679       23.0256077305        3.8703018637
  C        48.6905864961       24.0601338796        4.6017737984
  C        47.3600497543       24.4566596261        4.3637787209
  C        46.6394380808       23.8113938702        3.3406274865
  C        47.2130002882       22.7754944095        2.6088348385
  C        46.7216946335       25.5316997611        5.1547890955
  C        46.7336196101       25.5281741386        6.5764879900
  C        47.2489862334       24.4289304907        7.3328700477
  C        40.6216778879       17.0864051190        7.2979848820
  C        40.6269668526       17.1026966446        4.4888744925
  C        11.8828099333       14.0864920630        2.2904932517
  C        12.4720589656       12.9105161769        2.9946115539
  C        11.7146152106       12.1776021869        3.9210043718
  C        12.2811141075       11.0951004323        4.5894466681
  C        13.6198283894       10.7210983139        4.3574587719
  C        14.3576495898       11.4362410768        3.3962075353
  C        13.7922987426       12.5174334778        2.7234888003
  C        14.2534726932        9.6243911595        5.1279064632
  C        14.2523223227        9.6444468870        6.5497524987
  C        13.7422855832       10.7533068204        7.2968466047
  C        22.5128587892        3.2447875503       13.7467668784
  C        23.2297806050        4.3484667503       13.0450535761
  C        24.2272697090        4.0643442236       12.1003459831
  C        24.8588575467        5.1005301117       11.4170325926
  C        24.5093075832        6.4443110591       11.6574587236
  C        23.5390373044        6.7199479766       12.6384375181
  C        22.9029788479        5.6854367615       13.3204983185
  C        25.1225616202        7.5477742303       10.8818232417
  C        25.1016187417        7.5399467008        9.4598134016
  C        24.3975907086        6.5431387265        8.7122460795
  C        38.3035459776       31.9303976883       13.8430219672
  C        37.5760450610       30.8416214566       13.1309888398
  C        36.6193558691       31.1462116155       12.1506820156
  C        36.0036729888       30.1263401054       11.4305846086
  C        36.3297630096       28.7771087534       11.6699539238
  C        37.2574165397       28.4801049783       12.6861039952
  C        37.8773827995       29.4985975847       13.4048321188
  C        35.7271869532       27.6849721926       10.8739054064
  C        35.7578602145       27.6973569449        9.4526099481
  C        36.4624993371       28.6988033546        8.7130002406
  C        25.7324010462        8.6064839081        8.7407648337
  C        25.7205890271        8.6218536476       11.5530702038
  C        38.3272588175       31.9611960330        2.1603136840
  C        37.6030394902       30.8870359590        2.8989132631
  C        36.6739318057       31.1942506762        3.9047702128
  C        36.0628655120       30.1747493787        4.6322857407
  C        36.3663277843       28.8221221536        4.3780233511
  C        37.2718675915       28.5248928063        3.3410580088
  C        37.8850423702       29.5409006372        2.6146439453
  C        35.7606505639       27.7222584103        5.1637255567
  C        35.7753225989       27.7160495779        6.5858434739
  C        36.4702270702       28.7081450735        7.3464236088
  C        46.1357234985       26.6208781256        7.2866064655
  C        46.0876849817       26.5800098332        4.4787144275
  C        22.4640025000        3.2564830871        2.2624552059
  C        23.1651486397        4.3637300030        2.9825806314
  C        24.1719999208        4.0740597710        3.9174615463
  C        24.8075854180        5.1014264641        4.6110345766
  C        24.4571224538        6.4490115848        4.3930680834
  C        23.4733921439        6.7320171379        3.4264509808
  C        22.8333151681        5.7048266264        2.7330771003
  C        25.0945894830        7.5441574982        5.1675036342
  C        25.0878840515        7.5371124293        6.5904058649
  C        24.3891663200        6.5429777244        7.3455762712
  C        26.6211952076       17.8576921488       13.7766818475
  C        25.3163486900       17.9043774553       13.0478968183
  C        25.0463099580       18.9222432816       12.1176603942
  C        23.8351334935       18.9426492314       11.4267771521
  C        22.8553062942       17.9531735833       11.6493161337
  C        23.1220691992       16.9588617216       12.6090401568
  C        24.3360891485       16.9302065423       13.2944005835
  C        21.5804303249       17.9441819871       10.8872313412
  C        21.5805102026       17.9329112599        9.4649683138
  C        22.7866731641       17.8246325006        8.7030159654
  C        34.4165692344       17.2153028840       13.8376277520
  C        35.7156366975       17.1379921544       13.1108564209
  C        35.9226143389       16.1649293119       12.1210214484
  C        37.1141520398       16.1376511214       11.4016436709
  C        38.1283847788       17.0829488217       11.6509570699
  C        37.9253854092       18.0323625249       12.6703198694
  C        36.7329778923       18.0639714813       13.3884256971
  C        39.3835348599       17.0923571764       10.8665026070
  C        39.3739554250       17.1077883278        9.4449634531
  C        38.1639521938       17.2311555653        8.6920819559
  C        20.3327737745       17.9461668220        8.7584122421
  C        20.3567514179       17.9400287189       11.5719207950
  C        34.4415249390       17.2405045330        2.1770569214
  C        35.7401510565       17.1404658068        2.9014099005
  C        35.9352770948       16.1676949232        3.8939321422
  C        37.1264613389       16.1377583474        4.6157833757
  C        38.1474951287       17.0755180008        4.3663867616
  C        37.9559279283       18.0205092481        3.3404164256
  C        36.7656016889       18.0574721968        2.6208832318
  C        39.3976635728       17.0901436548        5.1580090925
  C        39.3813618393       17.1067950694        6.5793914948
  C        38.1674216504       17.2292413716        7.3259327016
  C        35.1481236035       26.6365321615        7.2924226736
  C        35.1686145309       26.6508294015        4.4834766233
  C        26.5700595704       17.8255025013        2.3300821286
  C        25.2562333032       17.8719909598        3.0363918520
  C        24.9739835969       18.9038387276        3.9440145658
  C        23.7553927925       18.9315193491        4.6163283407
  C        22.7900047615       17.9280594062        4.4028024369
  C        23.0658828311       16.9191425329        3.4625760763
  C        24.2854591647       16.8891824045        2.7889733959
  C        21.5261610259       17.9141273742        5.1762780184
  C        21.5522568075       17.9162151297        6.5973996197
  C        22.7735132311       17.8169131413        7.3368588424
  C        14.0455860712       17.8285839820        2.2937380115
  C        15.3497181273       17.8852977227        3.0196742850
  C        15.6066261478       18.8901208917        3.9653013265
  C        16.8155655192       18.9114849480        4.6580745503
  C        17.8012431554       17.9308388116        4.4268454766
  C        17.5488424812       16.9496036872        3.4496624176
  C        16.3392816188       16.9237269478        2.7585667746
  C        19.0708058918       17.9165310669        5.1944285792
  C        19.0710133015       17.9185471245        6.6167485602
  C        17.8649180331       17.8176995568        7.3792914800
  C        46.8021244128       17.2144479854        2.1585987104
  C        45.5063166085       17.1416008203        2.8920346499
  C        45.2986456518       16.1569263022        3.8702602418
  C        44.1129328841       16.1299499674        4.5991420390
  C        43.1050626255       17.0872718783        4.3718605600
  C        43.3081288155       18.0488158505        3.3635882180
  C        44.4948590443       18.0799033607        2.6355522234
  C        41.8534020519       17.0945612002        5.1628339111
  C        41.8654629187       17.0992247490        6.5847197921
  C        43.0771430509       17.1995221423        7.3384106684
  C        20.3182979826       17.9364603418        7.3237459247
  C        20.2942207938       17.8947595972        4.5106782575
  C        46.7848708826       17.2331645291       13.8783995070
  C        45.4868090977       17.1287046145       13.1521946799
  C        45.2770842450       16.1324775406       12.1859849526
  C        44.0926771561       16.1014136472       11.4535967627
  C        43.0865905211       17.0634511589       11.6693439257
  C        43.2884624278       18.0317302983       12.6710781757
  C        44.4740602989       18.0692823807       13.3987378871
  C        41.8384236259       17.0763297014       10.8734826811
  C        41.8580374460       17.0885184900        9.4519380818
  C        43.0737616342       17.1922652761        8.7052348881
  C        46.1535406618       26.6373390620        8.7211522850
  C        46.1623415557       26.6560450843       11.5308058803
  C        14.0461518695       17.8317297701       13.7033540785
  C        15.3681995408       17.9064388047       13.0124731137
  C        15.6426343760       18.9231915164       12.0855791603
  C        16.8719460213       18.9613650346       11.4308884000
  C        17.8553870253       17.9818556239       11.6767035123
  C        17.5876977061       16.9936866431       12.6416313602
  C        16.3603409488       16.9551754803       13.2999322871
  C        19.1229299306       17.9594359612       10.9068131215
  C        19.0983787769       17.9393752043        9.4850164477
  C        17.8781656231       17.8271202630        8.7452607718
  C        28.8149999394       14.0878493654        2.3637620746
  C        28.2114032872       12.9127608867        3.0591928460
  C        28.9455893506       12.1757564627        4.0002400135
  C        28.3550951488       11.1002318913        4.6605292942
  C        27.0175754910       10.7367338538        4.4023132146
  C        26.3054560670       11.4549792551        3.4248088491
  C        26.8928424219       12.5312971603        2.7645268595
  C        26.3545847187        9.6537163844        5.1661740448
  C        26.3449060913        9.6769890312        6.5874978678
  C        26.8550657908       10.7860447551        7.3340766791
  C        32.1816514368       21.2281808619        2.1546507717
  C        32.7737213476       22.3895463876        2.8799355006
  C        32.0354273942       23.0486298021        3.8746489904
  C        32.6047189042       24.0924171922        4.5970462799
  C        33.9289052395       24.5024980266        4.3490303572
  C        34.6501271162       23.8591035655        3.3253319679
  C        34.0828311845       22.8118318253        2.6027399735
  C        34.5585976490       25.5794782089        5.1457365612
  C        34.5569406783       25.5503430598        6.5676092216
  C        34.0546500006       24.4338596166        7.3084833191
  C        25.7298963576        8.6013451842        7.3057630829
  C        25.7135268523        8.6052030109        4.4925704627
  C        32.1025657677       21.2317023375       13.8718597540
  C        32.6931271608       22.3851355615       13.1329252195
  C        31.9602608372       23.0438613169       12.1336769954
  C        32.5422339532       24.0724268785       11.3967520897
  C        33.8705810419       24.4725979943       11.6416007194
  C        34.5854630270       23.8285165445       12.6695608197
  C        34.0085999986       22.7939248809       13.4012818415
  C        34.5130064068       25.5510107888       10.8555901208
  C        34.5316140850       25.5370849097        9.4338204823
  C        34.0404199342       24.4285669777        8.6750666966
  C        40.6178498360       17.0839424332        8.7325264960
  C        40.6090819353       17.0940698379       11.5423885222
  C        28.7516869598       14.0579727846       13.8259422486
  C        28.1480025698       12.9078335463       13.0866159481
  C        28.8888194378       12.2151261620       12.1149913679
  C        28.3111424390       11.1605570463       11.4115744656
  C        26.9781879796       10.7715660670       11.6530167821
  C        26.2541020036       11.4530766010       12.6503177567
  C        26.8281805412       12.5083235449       13.3555713314
  C        26.3401196910        9.6811999126       10.8766722484
  C        26.3391176441        9.6923360567        9.4545059042
  C        26.8501183505       10.7950518421        8.6999712082
  C        18.1355287370        3.1809225674        2.3222120280
  C        17.4061525696        4.2782059645        3.0208111549
  C        16.3904629048        3.9998046537        3.9483404307
  C        15.7426903299        5.0397452098        4.6118743448
  C        16.0945142963        6.3834818987        4.3721856674
  C        17.0838300137        6.6530462304        3.4083643652
  C        17.7329813163        5.6157404425        2.7432964277
  C        15.4701498092        7.4911624122        5.1352530245
  C        15.4855502926        7.4905766314        6.5569708243
  C        16.1872106280        6.4970360953        7.3101461640
  C        42.9459223037       31.8595022383        2.0780460420
  C        43.6462998500       30.7718561152        2.8219468947
  C        44.5921049742       31.0931415633        3.8077764355
  C        45.1978101199       30.0875791898        4.5554129815
  C        44.8710697237       28.7345465998        4.3407979918
  C        43.9449507383       28.4202216060        3.3278499662
  C        43.3361484572       29.4253878557        2.5798302162
  C        45.4886821524       27.6552532735        5.1439816684
  C        45.4930603476       27.6810174238        6.5656709921
  C        44.8061119801       28.6891587446        7.3122892392
  C        14.8564855626        8.5630282447        7.2693215562
  C        14.8747162317        8.5628407081        4.4566551982
  C        42.9465089147       31.9615803088       13.8038956465
  C        43.6917210972       30.8854995491       13.0903935681
  C        44.6564880877       31.1914166930       12.1182547955
  C        45.2780285294       30.1718321334       11.4005462435
  C        44.9541042255       28.8215100262       11.6379945422
  C        44.0204327706       28.5238405636       12.6486001720
  C        43.3921509871       29.5405922830       13.3607804247
  C        45.5631907448       27.7241263017       10.8527494515
  C        45.5336105117       27.7175191154        9.4314451182
  C        44.8274079066       28.7078218646        8.6784727611
  C        35.1373568201       26.6282888619        8.7271427202
  C        35.1224228133       26.6112317464       11.5368917791
  C        18.1487601790        3.2469873733       13.7016186153
  C        17.4300844322        4.3438818524       12.9923716720
  C        16.4149802336        4.0525557075       12.0687091699
  C        15.7666353301        5.0831368149       11.3932612126
  C        16.1211024177        6.4284008556       11.6160829484
  C        17.1123475519        6.7118289622       12.5734682410
  C        17.7600756760        5.6829670193       13.2532772527
  C        15.4905755364        7.5240683313       10.8435967490
  C        15.4965857689        7.5075209008        9.4224515616
  C        16.1934420125        6.5058764025        8.6757565218
  H        10.6723166681       12.4661908679       11.8990495826
  H        11.6943840635       10.5513297969       10.6572157605
  H        15.3909025994       11.1675150313       12.7680411525
  H        14.3505110953       13.0704184683       14.0132959744
  H        13.3755374502       11.6308597374        9.1961886135
  H        50.3227962227       22.7486424545       11.9819868337
  H        49.3195884679       24.6230641309       10.6759266420
  H        45.6418531351       24.1607032092       12.8582471771
  H        46.6627320662       22.2898337393       14.1664778277
  H        47.6296152900       23.5757878954        9.2411049642
  H        14.8716617939        8.5880031694       12.6034775497
  H        50.2870652717       22.7029559294        4.0650200297
  H        49.2690317932       24.5758092551        5.3650861822
  H        45.6098736737       24.1082813863        3.1518727132
  H        46.6519398019       22.2530264216        1.8376504577
  H        47.6075525323       23.5517172034        6.8019833821
  H        40.6291941418       17.0660617666        3.4011504467
  H        48.6868936175       14.0948561319       15.7949458846
  H        10.6812104807       12.4668445514        4.0985479737
  H        11.6892982496       10.5249114429        5.3022911640
  H        15.3929425893       11.1580150007        3.2100116393
  H        14.3644947287       13.0864701468        1.9945871635
  H        13.3751851131       11.6218038438        6.7582093037
  H        47.9301893006       14.2178117722        1.7159297176
  H        47.7796907470       14.3723391168       14.4898912545
  H        49.0817713811       18.5515598116        2.8717331219
  H        10.4155109719       14.1343830373        0.0037982780
  H        24.4859479129        3.0247187710       11.9120391628
  H        25.6328105995        4.8784724152       10.6854925700
  H        23.2604938678        7.7539633485       12.8309856105
  H        22.1324375853        5.8902387428       14.0598140350
  H        23.8323290526        5.7886429078        9.2515257092
  H        36.3832390962       32.1896000307       11.9554957070
  H        35.2610604722       30.3655329082       10.6725847586
  H        37.5166396822       27.4408172003       12.8771738995
  H        38.6191499311       29.2775688091       14.1686208093
  H        37.0281786851       29.4495337594        9.2571318525
  H        25.7500837536        8.6064357205       12.6411040313
  H        36.4518538927       32.2381878929        4.1143570016
  H        35.3376226199       30.4190406624        5.4053188218
  H        37.5180437833       27.4848906223        3.1371857296
  H        38.6070764454       29.3157424411        1.8335308208
  H        37.0427431202       29.4657323895        6.8190865985
  H        46.1088352731       26.5872430213        3.3906727476
  H        44.6682558631       35.1160958300       15.8088841124
  H        24.4473287712        3.0348214465        4.0824122204
  H        25.5914724447        4.8685878867        5.3286306462
  H        23.1905746715        7.7675507723        3.2483644430
  H        22.0583510080        5.9217239651        2.0014435467
  H        23.8168304331        5.7888156741        6.8131985460
  H        44.9537640250       34.3903463030        1.7002205408
  H        44.9016822098       34.2068401068       14.4854308874
  H        40.6654066405       33.2086940483        2.8580399691
  H        23.1509150954        1.9576087431        0.0101298644
  H        25.7932962558       19.6983694249       11.9607350272
  H        23.6303754843       19.7374154520       10.7124273752
  H        22.3774552175       16.1859791208       12.7889161091
  H        24.5516502852       16.1497100413       14.0205469095
  H        23.7302823640       17.7148070148        9.2294901293
  H        35.1343463808       15.4432359412       11.9204987521
  H        37.2727184122       15.3777039041       10.6396253385
  H        38.7009569928       18.7695382016       12.8675497582
  H        36.5586788682       18.8124174658       14.1578367237
  H        37.2269105317       17.3572931906        9.2264863445
  H        20.3650799408       17.9732412765       12.6600270166
  H        35.1372905660       15.4610594550        4.1127014636
  H        37.2742111242       15.3811646243        5.3833908225
  H        38.7366751250       18.7520075256        3.1426462848
  H        36.5970931819       18.8058129726        1.8503054882
  H        37.2331925146       17.3531507160        6.7860540436
  H        35.1356934349       26.6770129459        3.3959134120
  H        28.5053077042       21.0795637029       15.8802961499
  H        25.7210151559       19.6777324742        4.1040595847
  H        23.5363158865       19.7342552412        5.3171320681
  H        22.3283462784       16.1371744430        3.2937914490
  H        24.5154599098       16.0993325460        2.0778247826
  H        23.7063686838       17.7033122716        6.7923953074
  H        29.0088179463       21.7205169710        1.7468943583
  H        29.1864851769       21.7260881842       14.5592455416
  H        32.0991359888       18.5095278872        2.9215683055
  H        27.4117044925       19.0815411616        0.0993660508
  H        14.8485030284       19.6498861375        4.1417599920
  H        17.0116529189       19.6970344083        5.3847062750
  H        18.2995309935       16.1844094947        3.2628294072
  H        16.1322694017       16.1533065117        2.0195988131
  H        16.9222787823       17.6990841214        6.8528822096
  H        46.0841362397       15.4277128401        4.0539810949
  H        43.9530230125       15.3604159852        5.3511641608
  H        42.5370678858       18.7948664016        3.1827374853
  H        44.6687603214       18.8375642149        1.8750541521
  H        44.0164789485       17.3138991148        6.8050529282
  H        20.2870783685       17.9162470031        3.4223710089
  H        46.0573704817       15.3950722626       12.0119117371
  H        43.9335651260       15.3264466197       10.7069170884
  H        42.5179669612       18.7801784182       12.8441357702
  H        44.6486751392       18.8355059896       14.1501313488
  H        44.0105022132       17.3002961496        9.2443613069
  H        46.1990101653       26.6824949258       12.6182591349
  H        52.7408757057       21.0625464612        0.1997656377
  H        14.8825397309       19.6776043384       11.8946358437
  H        17.0828432420       19.7531947058       10.7152903002
  H        18.3373557474       16.2303023556       12.8396297450
  H        16.1391185537       16.1792055705       14.0287718983
  H        16.9455719509       17.7158206803        9.2901908911
  H        52.3217983764       21.6729396572       14.2893102389
  H        52.0127774607       21.7017247476        1.5007467641
  H        49.0671002135       18.6077301866       13.1988632798
  H        13.2470469396       19.0167183505       15.9720448170
  H        29.9767630935       12.4613729847        4.1981783623
  H        28.9266998476       10.5278533424        5.3880461246
  H        25.2719307602       11.1847749405        3.2180825147
  H        26.3400634738       13.1067242149        2.0260059267
  H        27.2247326431       11.6526470285        6.7942953986
  H        31.0207799620       22.7168174671        4.0795259735
  H        32.0266129024       24.6026797981        5.3641161476
  H        35.6757268734       24.1649379966        3.1290914802
  H        34.6451992552       22.2907593835        1.8314109388
  H        33.7020820912       23.5609929962        6.7664020755
  H        25.7408678325        8.5881823969        3.4044467113
  H        30.9373280174       22.7280894025       11.9418115239
  H        31.9685875259       24.5832504058       10.6264892910
  H        35.6136290155       24.1266947448       12.8640214335
  H        34.5666750023       22.2733797850       14.1760231515
  H        33.6771347827       23.5519671814        9.2040940779
  H        40.6055906785       17.0563753251       12.6301080387
  H        32.5234927860       14.1500753591        0.2506532205
  H        29.9167351731       12.5175842935       11.9276447233
  H        28.8936575521       10.6206662631       10.6682395496
  H        25.2224253648       11.1657982936       12.8428444062
  H        26.2666159872       13.0492207370       14.1137523903
  H        27.2155302514       11.6695219496        9.2305335615
  H        33.3013255978       14.2182287382       14.4307838466
  H        33.4075253153       14.3665068819        1.6223327265
  H        32.0879038599       18.5269158910       13.0797404696
  H        30.2387211334       14.1936155284        0.0708397090
  H        16.1184599962        2.9632820526        4.1347315751
  H        14.9532350971        4.8203032602        5.3275128629
  H        17.3661383995        7.6859441356        3.2151984931
  H        18.5149723324        5.8183991671        2.0153990663
  H        16.7537599098        5.7396937271        6.7766357615
  H        44.8286301040       32.1401959177        3.9817876248
  H        45.9378773178       30.3412928192        5.3111730680
  H        43.6819327333       27.3781913883        3.1579868303
  H        42.5992871448       29.1900366617        1.8154069073
  H        44.2307930930       29.4369471209        6.7739775560
  H        14.8507898435        8.5459536226        3.3684402018
  H        44.9001753731       32.2340848088       11.9269258607
  H        46.0250527365       30.4130669629       10.6474294585
  H        43.7633020935       27.4841226091       12.8400049325
  H        42.6455327187       29.3177310817       14.1190875071
  H        44.2689331990       29.4707443080        9.2130414052
  H        35.0791191179       26.6268128806       12.6242855693
  H        36.6051379079       35.1339969028        0.1857608225
  H        16.1440204556        3.0129538611       11.8989360803
  H        14.9743600584        4.8562218430       10.6831401112
  H        17.3956230619        7.7473328768       12.7505067409
  H        18.5428370623        5.8934295922       13.9781645618
  H        16.7648826476        5.7556470261        9.2142061414
  H        36.2787835153       34.4824466341       14.2681661558
  H        36.3810987195       34.2090967038        1.5049582012
  H        40.5805491613       33.2028686777       13.1485074702
  H        17.4710785909        1.9472969077       15.9692130160
  H        28.7521821708       18.8212197500        4.3016909982
  H        28.8750389828       18.6597214628       11.5606261653
  H        31.7906691588       15.8989391841       11.4848092066
  H        32.0807540038       16.0600537889        4.4562440502
  H        28.5432382102       17.2743193652        6.9113997830
  H        29.9063094913       15.1874818942        6.5503620772
  H        30.4054834442       20.0024417336        9.9028754916
  H        32.7761265919       17.6886083018        9.4006038805
  H        26.7958455433       18.0541239033       10.3826730357
  H        18.8529688517        0.8688215627        4.3402670252
  H        40.5278878034       35.2290815301       11.9469785887
  H        42.3241922307       34.4190821436       11.5854992540
  H        22.0876515126        0.6914130776        4.3571339747
  H        11.5970539673       18.7128023239        4.3871970349
  H        52.2646841029       18.4308969818       11.6722698231
  H        49.2552242065       16.4770126063       11.5793832177
  H        10.1499415805       15.7982093052        4.2982028680
  H        50.8497204970       17.6922499535       11.9493057535
  H        10.0458287316       17.3945113871        4.0571382114
  H        20.2140711355        0.0018833087        4.0472108890
  H        39.1835938920       36.1243300626       11.6811726165
 Ni        30.9477374846       17.9123571226       10.8253642480
 Ni        31.2793871380       16.5021115579        8.0780585131
 Ni        30.0578281970       18.6701918210        7.9131754780
 Ni        30.1386475214       17.2143720619        5.1648552557
  O        10.6498210737       14.3651304999       13.4807105431
  O        12.6131298496       14.6575611938       14.5787466599
  O        49.1478605500       16.8460692562       15.9846612001
  O        50.3502221108       20.9358827471       13.6430497874
  O        48.3485374102       20.5932762263       14.6608251641
  O        11.0512975651       17.0539793336       14.4954486267
  O        50.3209185021       20.8816537369        2.4118799822
  O        48.3467260426       20.5866720667        1.3321280284
  O        49.5435651874       18.2485019209        2.0732855020
  O        12.3588206343       18.6245015170        0.0047370497
  O        48.6931988050       14.1486300993       14.7461967387
  O         8.2099276301       14.2103515486        1.3276030471
  O        10.7353667009       14.5067636219        2.6694777418
  O        12.5717986257       14.5828704093        1.3335671316
  O        22.8447881437        2.0432105844       13.4818521868
  O        21.6066787149        3.5931043756       14.5835017727
  O        42.0581426587       34.1374323788       15.9740262461
  O        37.9819697890       33.1388234145       13.5675549785
  O        39.2181037520       31.5764126572       14.6615262020
  O        20.3085558687        1.0399824389       14.4971223064
  O        38.0242698081       33.1851045416        2.4203549280
  O        39.2190098261       31.5835897998        1.3315525743
  O        40.6522295489       33.7693247293        2.0653739083
  O        18.2557625447        1.3761197765        0.0019380712
  O        44.6222017186       35.1005715670       14.7536842378
  O        24.2053529354        0.0000245556        1.3259135120
  O        22.7534211270        2.0579488536        2.5891972004
  O        21.6254377095        3.5971868287        1.3495887001
  O        27.4951477699       18.7510301251       13.4874151717
  O        26.7631570758       16.9339551563       14.6469980921
  O        30.6615628497       19.4032431866        0.0099848322
  O        33.5333703535       16.3283769835       13.5687590489
  O        34.2686890501       18.1781569281       14.6626679062
  O        29.5742147355       17.0650751885       14.5684112053
  O        33.5552894915       16.3427582792        2.4116174126
  O        34.2978128103       18.2390644937        1.3925952151
  O        31.6546430305       18.3255242435        2.0771217243
  O        30.3240379283       15.1609236356        0.0775342897
  O        28.5519357251       21.0355623744       14.8277710891
  O        28.5157215847       20.9532885221        1.4100387646
  O        27.4587732668       18.6802927294        2.6631553097
  O        26.6934685052       16.9316994419        1.4176524889
  O        13.1484895633       18.6930758962        2.5924559421
  O        13.9192694874       16.9161052483        1.4099720481
  O        50.5956203282       19.3501468203        0.0253794732
  O        47.6833843747       16.3268710037        2.4218396843
  O        46.9513908935       18.1757530542        1.3295149215
  O        11.0695579448       17.0156165971        1.4947677545
  O        47.6755426646       16.3358388701       13.6477112927
  O        46.9246216703       18.2356338594       14.6575773822
  O        49.5682516269       18.3177067988       13.9771100060
  O        10.3184950018       15.1002739594        0.0021572240
  O        52.6707209074       21.0278937879        1.2469438940
  O        12.1468294086       20.8910899880       14.6680524047
  O        13.1089286512       18.6136111553       13.3202599187
  O        13.9579542855       16.9871557302       14.6599176097
  O        30.0013515173       14.4372468795        2.6671490388
  O        28.0767226540       14.6594770779        1.4869934160
  O        32.1375756571       16.8605389983        0.0151020802
  O        30.9626825471       20.9367683066        2.4184570571
  O        32.9438700945       20.6022409057        1.3381637127
  O        29.5659248246       17.0741703316        1.5758748506
  O        30.8734543842       20.9471574049       13.6497964920
  O        32.8777603621       20.5916910368       14.6579308025
  O        31.6489985376       18.3044247080       13.9200750248
  O        28.2947963977       18.6782362358        0.0736747759
  O        32.4923841855       14.2117058325        1.3253382438
  O        32.4041796752       14.2257693872       14.8044880647
  O        29.9210633526       14.4373011076       13.4875381474
  O        28.0391202378       14.5867700683       14.7470192612
  O        17.8892599468        1.9666615089        2.6679190258
  O        18.9563699486        3.5271809765        1.4130566444
  O        39.1686439986       34.1387768994        0.0023739134
  O        43.2802328103       33.0589848797        2.3367900564
  O        42.0345540947       31.5064706857        1.2467442856
  O        20.3177286985        1.0368208453        1.4851838847
  O        43.2760829998       33.1826257856       13.5697894106
  O        42.0052821787       31.5841225597       14.5778733330
  O        40.5791033924       33.7751558053       13.9309247207
  O        22.3674133559        1.3848966238        0.0031187938
  O        36.6728195582       35.0997511180        1.2384385042
  O        16.4455706894        0.0643954548       14.6632474840
  O        17.9364974695        2.0434718247       13.3213143516
  O        18.9192767872        3.5931483183       14.6608991660
  O        29.7437341573       18.8331839129       11.9979756613
  O        29.7019694371       18.7594405802        4.0727335859
  O        31.1346365662       16.4083504265       12.0005475414
  O        31.3523224719       16.4840694447        3.9368909514
  O        32.1498189657       16.9908903365        9.6712854002
  O        27.7135148877       17.9521875177       10.0788377874
  O        30.6234592253       15.8305337078        6.4202294455
  O        31.9079713250       18.0295322043        7.0761927573
  O        30.9139184494       19.2728732524        9.4984630935
  O        29.0288508313       18.0121676667        6.4925271236
  O        39.4567503006       35.2437702712       11.9968744265
  O        19.1408275588        0.0042836129        3.9956788714
  O        41.9696592054       35.1728543856       12.0821945976
  O        21.6910499151       -0.0696481285        3.9010563407
  O        51.3649479479       18.6142398996       12.0004010478
  O        10.7511100661       18.7472420285        3.9099673547
  O        50.0796729515       16.4128999268       12.0866906433
  O         9.5243105759       16.4830968092        3.9963368566
 Zr         9.2955971091       16.0527125599       14.1772825665
 Zr        49.8356948771       16.0067744629        1.7517611459
 Zr        22.0732443663        0.0297971705       14.1840691647
 Zr        42.4609175602       35.1534023165        1.8062792181
 Zr        29.5977802295       19.0915053580       14.2102316799
 Zr        29.5962726405       19.1761940797        1.8329419422
 Zr        11.0369439312       19.0521238223        1.8326298276
 Zr        11.0430594250       19.1548206670       14.2462273691
 Zr        31.3551826291       16.1023840741        1.8400864782
 Zr        31.3803385148       16.0342019634       14.2474256048
 Zr        18.6011432828       -0.0017023835        1.7683982824
 Zr        18.5065431360       -0.0075392906       14.2087993777
 Zr        12.3009931275       16.3235270314       15.9849363037
 Zr        48.6148156561       18.8327991526        0.0150546474
 Zr        20.3159488478        2.4737559631       15.9857756074
 Zr        40.6434913203       32.6868276366       15.9733217045
 Zr        28.3482843841       16.3405499759        0.0895109858
 Zr        32.6289459195       18.8489239672        0.0178959354
  H        32.4843299946       18.6794854344        7.5159927538
  O        28.6765683313       15.5370395608       10.9028163216
  H        29.5083718936       15.7147293838       11.4104140338
  H        28.2162161268       14.8364680873       11.3910783955
  O        33.2905511368       15.3207717904        5.7426454095
  H        32.4189913055       15.0905734338        6.1330129835
  H        33.4440647285       16.2042390250        6.1284250846
  O        30.2438718460       20.5881747505        6.4941893422
  H        30.2661285694       20.0413277421        5.6713892643
  H        29.4059900269       21.0734061275        6.4189628415
  H        27.9695948143       17.0264258898       10.3523092474
  H        30.7035646165       15.3652571387        8.7762680755
