     583
 i =      203, E =     -4830.5618016887
  C        11.8579311144       14.0537634155       13.7364816886
  C        12.4555234192       12.8903113464       13.0183005654
  C        11.7041184594       12.1720999886       12.0759447016
  C        12.2804213253       11.1098340642       11.3835193873
  C        13.6206256225       10.7392470840       11.6119827740
  C        14.3533840185       11.4419431086       12.5863956212
  C        13.7805275570       12.5069190940       13.2779646075
  C        14.2604051960        9.6487785565       10.8385034239
  C        14.2562194459        9.6568489104        9.4167795258
  C        13.7428373573       10.7588426947        8.6628169491
  C        49.1263198167       21.2334592813       13.8747747583
  C        48.5494682041       22.4011832650       13.1472727287
  C        49.3004050035       23.0701703492       12.1681256095
  C        48.7335339334       24.1093063603       11.4348776408
  C        47.4021892118       24.5091665373       11.6617686899
  C        46.6700423161       23.8582460530       12.6730342670
  C        47.2324202897       22.8132579259       13.4023786150
  C        46.7722332596       25.5871106085       10.8645457896
  C        46.7618139387       25.5578578437        9.4427855550
  C        47.2623510309       24.4429822585        8.6993644435
  C        14.8604804157        8.5706606473        8.7035306018
  C        14.8910023614        8.5966992501       11.5151441397
  C        49.1128408529       21.2032804257        2.1502979262
  C        48.5274711107       22.3645040328        2.8778923178
  C        49.2676224820       23.0268509881        3.8690033840
  C        48.6913758874       24.0614720366        4.6004527999
  C        47.3602113529       24.4566065079        4.3638354515
  C        46.6386051193       23.8096780574        3.3424952853
  C        47.2120164033       22.7735694881        2.6108357289
  C        46.7220280454       25.5318618697        5.1547479555
  C        46.7342230130       25.5286566468        6.5764350631
  C        47.2501551338       24.4296639272        7.3328081327
  C        40.6220166991       17.1004604196        7.3087168671
  C        40.6371215083       17.1972124854        4.4747717147
  C        11.8824538259       14.0865702146        2.2902658851
  C        12.4718559508       12.9102830012        2.9943972990
  C        11.7144525314       12.1775059209        3.9208552224
  C        12.2809501784       11.0950452396        4.5894515824
  C        13.6195483325       10.7208673289        4.3572892708
  C        14.3573628834       11.4359128326        3.3959725397
  C        13.7919736745       12.5170487038        2.7231520888
  C        14.2533310966        9.6243008714        5.1278447599
  C        14.2524707466        9.6444602856        6.5497014128
  C        13.7423246512       10.7532917668        7.2967659074
  C        22.5137669232        3.2444865414       13.7488245613
  C        23.2330298959        4.3488906089       13.0512716138
  C        24.2312572776        4.0662436136       12.1070770529
  C        24.8630500270        5.1038649405       11.4262445496
  C        24.5127422743        6.4467705871       11.6696103576
  C        23.5430749177        6.7209932582       12.6512916598
  C        22.9065104442        5.6850790084       13.3304175035
  C        25.1213499120        7.5517312558       10.8931063696
  C        25.0874223276        7.5462814385        9.4716652281
  C        24.3796770627        6.5491382679        8.7279524178
  C        38.3032653292       31.9298275113       13.8437638706
  C        37.5751691109       30.8400096830       13.1335553979
  C        36.6167139647       31.1430250716       12.1545375944
  C        36.0013046024       30.1219749061       11.4358548627
  C        36.3296206948       28.7732276107       11.6751256526
  C        37.2586163523       28.4776740728       12.6903965685
  C        37.8782894369       29.4974131106       13.4077140420
  C        35.7283082067       27.6808951636       10.8783208417
  C        35.7592500440       27.6953823156        9.4571336875
  C        36.4657059913       28.6971756099        8.7197277574
  C        25.7096703408        8.6154224230        8.7498138341
  C        25.7255343058        8.6238116286       11.5617736747
  C        38.3287968334       31.9622020339        2.1610986369
  C        37.6070802111       30.8889171869        2.9025778091
  C        36.6796810579       31.1975446685        3.9094334528
  C        36.0699426468       30.1788416026        4.6389123868
  C        36.3731823152       28.8263077607        4.3846330383
  C        37.2778705566       28.5276669495        3.3474646046
  C        37.8898410485       29.5428803206        2.6193388159
  C        35.7658216020       27.7270405089        5.1688853123
  C        35.7784507875       27.7189206445        6.5908005690
  C        36.4746330843       28.7086758862        7.3532413531
  C        46.1361712309       26.6213218554        7.2864896722
  C        46.0877621288       26.5799252608        4.4785953379
  C        22.4597900671        3.2556739043        2.2635087178
  C        23.1515484467        4.3645451650        2.9887489872
  C        24.1528000230        4.0785339694        3.9304114194
  C        24.7791263162        5.1085817003        4.6280204937
  C        24.4244597968        6.4543476697        4.4062145569
  C        23.4458136517        6.7336217190        3.4334944630
  C        22.8147862949        5.7037836986        2.7365176787
  C        25.0562251643        7.5524053928        5.1796518246
  C        25.0548459775        7.5456365480        6.6025956904
  C        24.3625884624        6.5496021550        7.3613483428
  C        26.6192622675       17.8579511295       13.7834245147
  C        25.3146273236       17.8957648788       13.0483377285
  C        25.0200257877       18.9385041576       12.1516759158
  C        23.8102756930       18.9495430417       11.4559904018
  C        22.8548443749       17.9309321712       11.6453634493
  C        23.1455712111       16.9105424549       12.5707045639
  C        24.3589529699       16.8872349722       13.2564910370
  C        21.5794118876       17.9209953193       10.8836705693
  C        21.5820399000       17.9195605216        9.4619471135
  C        22.7897518142       17.8213967237        8.7007785242
  C        34.4224934305       17.2221183765       13.8802543673
  C        35.7172727760       17.1622280801       13.1557215591
  C        35.8886525153       16.2732342446       12.0805938303
  C        37.0712696140       16.2712812457       11.3520393447
  C        38.1296718787       17.1487184427       11.6818447606
  C        37.9622086764       18.0031805341       12.7953003002
  C        36.7720959424       18.0193063700       13.5123292823
  C        39.3732841048       17.1837945565       10.9058266231
  C        39.3669715827       17.1669605010        9.4501670892
  C        38.1868268638       17.3239892394        8.7083500913
  C        20.3345684955       17.9321200840        8.7551077209
  C        20.3563744367       17.9108375949       11.5690411837
  C        34.4501866115       17.2317500998        2.1806933259
  C        35.7566215579       17.1187843849        2.8790407207
  C        35.9385384370       16.2011124744        3.9269897433
  C        37.1240043888       16.2009902794        4.6540327495
  C        38.1699650727       17.0977773340        4.3441641390
  C        37.9983994340       17.9685244426        3.2446361625
  C        36.8054961964       17.9900735966        2.5342493505
  C        39.4057820520       17.1481107690        5.1326345448
  C        39.3832261338       17.1469872248        6.5870397903
  C        38.1932511728       17.3087726989        7.3122486511
  C        35.1481720517       26.6397351155        7.2951033268
  C        35.1737501064       26.6574771266        4.4861419726
  C        26.5732302840       17.8246110457        2.3297306056
  C        25.2569397749       17.8783386537        3.0309021141
  C        24.9806541890       18.9046221510        3.9467404131
  C        23.7621425979       18.9341507966        4.6190869740
  C        22.7913094951       17.9372633694        4.3984171954
  C        23.0603717773       16.9360605438        3.4478899857
  C        24.2794836774       16.9046909140        2.7737853860
  C        21.5286424203       17.9203556107        5.1733894252
  C        21.5550761241       17.9162008040        6.5946087442
  C        22.7764757973       17.8184552821        7.3344742743
  C        14.0451722648       17.8285924590        2.2930923793
  C        15.3506060636       17.8856396458        3.0187183507
  C        15.6072248968       18.8893857111        3.9653577978
  C        16.8166364937       18.9109456376        4.6576046146
  C        17.8029394255       17.9316928339        4.4239336629
  C        17.5509600531       16.9513812378        3.4458627242
  C        16.3406767884       16.9252795577        2.7557964036
  C        19.0729180005       17.9170195538        5.1912241048
  C        19.0734568520       17.9118035031        6.6134756677
  C        17.8673109372       17.8049962663        7.3751363885
  C        46.8023761070       17.2130005470        2.1571997596
  C        45.5084824182       17.1410695885        2.8837894412
  C        45.3279144523       16.2190976615        3.9285214508
  C        44.1482674785       16.2125584782        4.6630337599
  C        43.1034223418       17.1163412681        4.3657575317
  C        43.2777900654       18.0022301318        3.2791627619
  C        44.4653320079       18.0237827307        2.5581356435
  C        41.8615944224       17.1508890880        5.1461783962
  C        41.8695037387       17.1326020704        6.6005497576
  C        43.0539238514       17.2641242664        7.3410875392
  C        20.3207101093       17.9293993114        7.3205625372
  C        20.2964453494       17.9015864858        4.5078731011
  C        46.7819701483       17.2286416192       13.8853134976
  C        45.4791286937       17.1204850371       13.1800545431
  C        45.2863142608       16.1864388283       12.1477973827
  C        44.1039203700       16.1812184716       11.4165328889
  C        43.0644788967       17.0940248732       11.7085270832
  C        43.2445785503       17.9808646190       12.7936233919
  C        44.4358956231       18.0048649106       13.5063844122
  C        41.8295926149       17.1472074013       10.9192675670
  C        41.8529099617       17.1304970480        9.4643542976
  C        43.0454287042       17.2608728805        8.7374472724
  C        46.1538908203       26.6377804880        8.7210295115
  C        46.1619603557       26.6559875258       11.5306748334
  C        14.0446784405       17.8286580573       13.7017471419
  C        15.3662867878       17.8957310173       13.0068717461
  C        15.6475081558       18.9137708630       12.0836999018
  C        16.8772650926       18.9460523857       11.4291205030
  C        17.8540299136       17.9591046965       11.6715296977
  C        17.5788631386       16.9676721679       12.6307276879
  C        16.3511566302       16.9354666352       13.2889984094
  C        19.1227928649       17.9345328547       10.9032862848
  C        19.1000078722       17.9197560400        9.4814417844
  C        17.8800088927       17.8088874084        8.7411120481
  C        28.8044553424       14.0881640690        2.3953043071
  C        28.1917474639       12.9156577126        3.0823632405
  C        28.9209373749       12.1622949397        4.0147620884
  C        28.3200909961       11.0889236819        4.6676604233
  C        26.9778394779       10.7436514906        4.4104886179
  C        26.2708861378       11.4759796247        3.4399100141
  C        26.8684370615       12.5507302800        2.7866364698
  C        26.3100461804        9.6638522874        5.1730306354
  C        26.3055931813        9.6885422201        6.5940349069
  C        26.8155870393       10.7995182678        7.3379514895
  C        32.1799654827       21.2423558537        2.1524776104
  C        32.7704666149       22.4104587169        2.8673240843
  C        32.0252639411       23.0835602445        3.8476232384
  C        32.5966333316       24.1216826458        4.5762516079
  C        33.9291158780       24.5144829954        4.3453052103
  C        34.6565197422       23.8604184960        3.3330404555
  C        34.0877570327       22.8166755413        2.6062530570
  C        34.5596640407       25.5876721224        5.1462990384
  C        34.5540580725       25.5567307112        6.5679129791
  C        34.0463553354       24.4409883316        7.3062243318
  C        25.6972338745        8.6115112713        7.3150957376
  C        25.6690594125        8.6148724282        4.5014364175
  C        32.1063793042       21.2326785116       13.8813146952
  C        32.6987190925       22.3819835806       13.1369161371
  C        31.9623980648       23.0431194889       12.1418311058
  C        32.5435477932       24.0704166655       11.4024975013
  C        33.8740727100       24.4666570895       11.6413191022
  C        34.5932764150       23.8186428165       12.6636610156
  C        34.0172533876       22.7850999999       13.3976240984
  C        34.5145031934       25.5467242846       10.8559507755
  C        34.5302234644       25.5365780111        9.4341406242
  C        34.0337902821       24.4317535580        8.6729833089
  C        40.6134334765       17.1042843886        8.7431182896
  C        40.5988572617       17.2174993238       11.5772503824
  C        28.7549638278       14.0715575016       13.8133230355
  C        28.1499459950       12.9212900040       13.0764468193
  C        28.8814718783       12.2400320234       12.0913622086
  C        28.3041613638       11.1808661615       11.3945086330
  C        26.9786831792       10.7775295500       11.6549389247
  C        26.2652684617       11.4467205219       12.6673460572
  C        26.8413095507       12.5047195474       13.3676099873
  C        26.3362133151        9.6867611999       10.8828616771
  C        26.3192521683        9.7012517837        9.4608346546
  C        26.8189644678       10.8073236630        8.7037743194
  C        18.1353857498        3.1809412341        2.3221728732
  C        17.4059445666        4.2781378510        3.0207047181
  C        16.3909545151        3.9997099835        3.9489993385
  C        15.7431449578        5.0396221499        4.6125115856
  C        16.0943684115        6.3834101775        4.3722008080
  C        17.0829631466        6.6529952673        3.4076312364
  C        17.7321491770        5.6157102913        2.7426135337
  C        15.4701302882        7.4911124496        5.1352530431
  C        15.4858868865        7.4906854673        6.5569580595
  C        16.1877386977        6.4973147523        7.3101797314
  C        42.9460235703       31.8593741325        2.0780605080
  C        43.6463419400       30.7718586194        2.8218393582
  C        44.5919118118       31.0931801551        3.8079219360
  C        45.1976409083       30.0876093405        4.5554698715
  C        44.8713177032       28.7344991188        4.3405504964
  C        43.9455670713       28.4201806705        3.3272359669
  C        43.3367113634       29.4253227022        2.5792593739
  C        45.4888916897       27.6552926492        5.1438047704
  C        45.4933898050       27.6813337048        6.5654834070
  C        44.8062930147       28.6893937967        7.3120809134
  C        14.8567904166        8.5631298739        7.2692897372
  C        14.8744835134        8.5626750514        4.4566543286
  C        42.9465603924       31.9614159715       13.8038294473
  C        43.6917217720       30.8854907372       13.0904813751
  C        44.6559897063       31.1914353595       12.1178115630
  C        45.2774546337       30.1718877145       11.4000606439
  C        44.9540060983       28.8214920245       11.6379286937
  C        44.0208645329       28.5237791073       12.6490477475
  C        43.3926608603       29.5405179554       13.3612721757
  C        45.5630233647       27.7242035833       10.8526107530
  C        45.5337559613       27.7178493663        9.4313060645
  C        44.8275031553       28.7080645252        8.6782661309
  C        35.1372258381       26.6285206818        8.7296923715
  C        35.1245160225       26.6054168351       11.5392334303
  C        18.1485643504        3.2469552058       13.7015008293
  C        17.4297275159        4.3437643829       12.9924122080
  C        16.4151175015        4.0524277450       12.0682027314
  C        15.7667362227        5.0830133152       11.3928081511
  C        16.1207514792        6.4283294076       11.6160952521
  C        17.1113267186        6.7117400746       12.5741875188
  C        17.7591069229        5.6828912724       13.2539289814
  C        15.4903519808        7.5240290750       10.8435956544
  C        15.4967978762        7.5076343521        9.4224593306
  C        16.1938960663        6.5061401880        8.6757880151
  H        10.6722106182       12.4668435708       11.8985077460
  H        11.6941378545       10.5518549548       10.6565780330
  H        15.3899901097       11.1663298777       12.7690182966
  H        14.3493749094       13.0693379778       14.0144926122
  H        13.3751648764       11.6306783223        9.1961480821
  H        50.3237349966       22.7513190679       11.9848376367
  H        49.3205293821       24.6258886130       10.6785943048
  H        45.6396539324       24.1571084372       12.8542864095
  H        46.6603831637       22.2858838598       14.1622452801
  H        47.6310194018       23.5767491719        9.2412091068
  H        14.8706658056        8.5876186912       12.6034393140
  H        50.2882987530       22.7051876044        4.0625193133
  H        49.2702675321       24.5781780738        5.3627316675
  H        45.6083447379       24.1050912932        3.1552387715
  H        46.6501818338       22.2493716324        1.8413772638
  H        47.6091687965       23.5526783737        6.8018306071
  H        40.6431038254       17.1695062472        3.3868038276
  H        48.6855789978       14.0947576659       15.7943836978
  H        10.6810794118       12.4669283730        4.0983754265
  H        11.6890349619       10.5249199268        5.3022742018
  H        15.3925278227       11.1573589814        3.2095491886
  H        14.3638966105       13.0859475823        1.9939258990
  H        13.3748590725       11.6215900585        6.7580501459
  H        47.9299968934       14.2185187984        1.7162344657
  H        47.7800992850       14.3732584056       14.4876263618
  H        49.0791964736       18.5508054897        2.8706299205
  H        10.4139871901       14.1344369551        0.0034166867
  H        24.4894843400        3.0268982861       11.9166132617
  H        25.6367324602        4.8837849909       10.6938140908
  H        23.2650549764        7.7547621706       12.8458226717
  H        22.1355528380        5.8878815281       14.0698165435
  H        23.8195542457        5.7930594178        9.2703832607
  H        36.3791574228       32.1860386071       11.9590500093
  H        35.2576542893       30.3598680095       10.6784599401
  H        37.5196424860       27.4388409847       12.8815429103
  H        38.6214382752       29.2776466260       14.1705236074
  H        37.0322880987       29.4459499701        9.2656113226
  H        25.7660143839        8.6048174592       12.6493807469
  H        36.4580223362       32.2417722070        4.1179310491
  H        35.3457061198       30.4234667007        5.4127687326
  H        37.5239702913       27.4874436755        3.1446906474
  H        38.6111827233       29.3174597358        1.8376803005
  H        37.0490093196       29.4658724912        6.8273527617
  H        46.1086443777       26.5867557134        3.3905454572
  H        44.6683724887       35.1160605083       15.8087447876
  H        24.4312395564        3.0403893557        4.0969701283
  H        25.5597549222        4.8797065277        5.3503822991
  H        23.1602072041        7.7680210420        3.2533754190
  H        22.0435600546        5.9164528207        1.9997774275
  H        23.7885091901        5.7946215098        6.8320057081
  H        44.9540295120       34.3905125874        1.7002825329
  H        44.9019504714       34.2068642497       14.4853092307
  H        40.6662500519       33.2088945639        2.8581543988
  H        23.1507833599        1.9573839160        0.0108118179
  H        25.7435117960       19.7423207910       12.0251071330
  H        23.5881362701       19.7607876342       10.7656583112
  H        22.4195645821       16.1141744778       12.7223714608
  H        24.5943517217       16.0871927521       13.9548579894
  H        23.7346791984       17.7145831892        9.2260155045
  H        35.0752433071       15.5999412204       11.8213071135
  H        37.1973204981       15.5737538624       10.5274791601
  H        38.7631974789       18.6912519196       13.0570371944
  H        36.6266472240       18.7043857349       14.3443589666
  H        37.2477679174       17.4890522791        9.2278071893
  H        20.3641954789       17.9371663270       12.6573446679
  H        35.1374371159       15.5173424320        4.1978442015
  H        37.2511948269       15.4937240858        5.4703155117
  H        38.7930519400       18.6685958901        2.9958252158
  H        36.6492974553       18.6955914082        1.7218100935
  H        37.2587804245       17.4545824529        6.7786071072
  H        35.1437942223       26.6844927568        3.3985344650
  H        28.5136641943       21.0818542179       15.9685292181
  H        25.7329541470       19.6721284737        4.1129041345
  H        23.5470305028       19.7330644540        5.3254939851
  H        22.3180247048       16.1601793442        3.2722168249
  H        24.5042788437       16.1199148275        2.0554182183
  H        23.7097744022       17.7101342995        6.7896581004
  H        29.0044891610       21.7210536788        1.7652833934
  H        29.1471558095       21.7534534609       14.6093177199
  H        32.1509826845       18.5767968764        2.9635480788
  H        27.4109958909       19.0811899788        0.1051390841
  H        14.8482192713       19.6479302779        4.1434014854
  H        17.0122077562       19.6954753103        5.3854979996
  H        18.3020749269       16.1869784804        3.2574905330
  H        16.1333554671       16.1556235577        2.0160852200
  H        16.9251839810       17.6871983761        6.8475684016
  H        46.1332598053       15.5254935576        4.1586835059
  H        44.0133323147       15.4927011354        5.4668709701
  H        42.4850451471       18.7089714713        3.0434121407
  H        44.6188311997       18.7333852776        1.7485001429
  H        43.9962339377       17.4053960688        6.8203602357
  H        20.2890394305       17.9281430933        3.4196839520
  H        46.0829757501       15.4818423787       11.9199696153
  H        43.9637761567       15.4580857597       10.6164508525
  H        42.4555831611       18.6917090883       13.0296466069
  H        44.5957626487       18.7216930786       14.3081096882
  H        43.9819741510       17.3980925067        9.2696090137
  H        46.1982228937       26.6820207513       12.6181500354
  H        52.7403836284       21.0621187214        0.1996136157
  H        14.8925558801       19.6741683371       11.8958343079
  H        17.0935353066       19.7392711527       10.7166445089
  H        18.3224942244       16.1974565813       12.8250201431
  H        16.1239795121       16.1579352621       14.0143548158
  H        16.9476250089       17.6942553119        9.2857628225
  H        52.3200054604       21.6722029992       14.2898390403
  H        52.0110184452       21.7003287644        1.5003737865
  H        49.0628959054       18.6067555089       13.2007841164
  H        13.2464574186       19.0171312369       15.9714159551
  H        29.9571881967       12.4282254462        4.2123215598
  H        28.8865647591       10.5038793709        5.3890370576
  H        25.2341092623       11.2181383665        3.2337333376
  H        26.3207401759       13.1375527865        2.0533104133
  H        27.1782978930       11.6674614863        6.7955918975
  H        31.0026332360       22.7656868978        4.0343445379
  H        32.0151436563       24.6425519270        5.3336678505
  H        35.6880573064       24.1542921399        3.1500628748
  H        34.6557685216       22.2847806741        1.8464559758
  H        33.6899160363       23.5712836650        6.7614492792
  H        25.6937999142        8.5965103898        3.4132884297
  H        30.9373237942       22.7304421420       11.9559845499
  H        31.9672754496       24.5842143375       10.6361896636
  H        35.6236096352       24.1131113530       12.8522034688
  H        34.5781341902       22.2610778187       14.1680106696
  H        33.6683896401       23.5548920847        9.2003275330
  H        40.5927215439       17.1926190536       12.6653109495
  H        32.5246847936       14.1549624800        0.2536467655
  H        29.9034236978       12.5537152414       11.8902685508
  H        28.8809889537       10.6476955436       10.6418538179
  H        25.2403881842       11.1474537370       12.8771816895
  H        26.2874064186       13.0343232646       14.1391134314
  H        27.1833796616       11.6816939104        9.2349120708
  H        33.3007093032       14.2144817126       14.4358104359
  H        33.4034166807       14.3491601007        1.6390447908
  H        32.1390036212       18.5545646669       13.1914619139
  H        30.2364226735       14.1941675899        0.0732978369
  H        16.1193505597        2.9631614923        4.1358131207
  H        14.9541568643        4.8201703479        5.3286589026
  H        17.3646359180        7.6859507662        3.2138709115
  H        18.5135140991        5.8183662094        2.0140491806
  H        16.7544225405        5.7400438364        6.7767161360
  H        44.8282017430       32.1402367062        3.9822058599
  H        45.9374752962       30.3413127830        5.3114561140
  H        43.6829912116       27.3780966932        3.1570007162
  H        42.6002354131       29.1898390607        1.8145105578
  H        44.2308087667       29.4370595866        6.7737841095
  H        14.8501222351        8.5455634359        3.3684511708
  H        44.8993776836       32.2341110543       11.9261643385
  H        46.0241482252       30.4131129067       10.6466178223
  H        43.7642139665       27.4840167731       12.8408742931
  H        42.6465200551       29.3175362750       14.1200089730
  H        44.2687796859       29.4708624389        9.2127413282
  H        35.0823352655       26.6180437255       12.6267007404
  H        36.6051471025       35.1340294015        0.1857801632
  H        16.1444840350        3.0128036365       11.8980459287
  H        14.9748526385        4.8560877597       10.6822544149
  H        17.3940634664        7.7472957782       12.7517563004
  H        18.5413761219        5.8933577894       13.9793387125
  H        16.7654131720        5.7559778293        9.2142484038
  H        36.2786000779       34.4825010931       14.2680210460
  H        36.3812322437       34.2090510626        1.5048054241
  H        40.5808944616       33.2026915371       13.1484943588
  H        17.4708669610        1.9473566638       15.9690707837
  H        28.7996437407       18.9145692174        4.4151335796
  H        28.8256751931       18.8526907466       11.7722505568
  H        31.8304243309       15.8975999780       11.5448414094
  H        30.9654683093       15.3762299504        4.3280628645
  H        28.5050142688       17.2277557921        7.0202605618
  H        29.6043494471       14.9839464855        6.9733689351
  H        30.5449757898       20.1443652299       10.0322147487
  H        32.8268427716       17.6127080632        9.2353575120
  H        26.4979314623       17.6992463347       10.7924976125
  H        18.8534035349        0.8690293468        4.3402512268
  H        40.5279949205       35.2291971041       11.9469918409
  H        42.3243709747       34.4193397235       11.5854042386
  H        22.0879624983        0.6916645681        4.3569758788
  H        11.5975804384       18.7125373500        4.3863183669
  H        52.2646882302       18.4303723815       11.6729575073
  H        49.2542117992       16.4814174524       11.5821888157
  H        10.1511771552       15.7983121452        4.2967684089
  H        50.8493915223       17.6917661031       11.9499980408
  H        10.0455683995       17.3944360089        4.0569806429
  H        20.2147012392        0.0021977840        4.0471340251
  H        39.1836761868       36.1244788186       11.6814405827
 Ni        30.9877291909       17.9392998533       10.8286795002
 Ni        31.1146053611       16.3519046163        8.3240602604
 Ni        30.0984918004       18.8928492108        7.9108037335
 Ni        30.2718288766       17.3221464698        5.4123730281
  O        10.6496475954       14.3650942422       13.4804747996
  O        12.6130868827       14.6575130396       14.5786516237
  O        49.1478845210       16.8460108516       15.9846077571
  O        50.3501414565       20.9364835332       13.6431781495
  O        48.3484882362       20.5936850881       14.6608190856
  O        11.0507217414       17.0543129812       14.4951353058
  O        50.3210968322       20.8818649374        2.4118295314
  O        48.3467893110       20.5869845878        1.3321391077
  O        49.5435328207       18.2486459701        2.0733214865
  O        12.3585833183       18.6243655817        0.0047406138
  O        48.6930416127       14.1485471294       14.7459082723
  O         8.2097715256       14.2101257110        1.3276836738
  O        10.7354376431       14.5066793150        2.6696036658
  O        12.5718337730       14.5828434710        1.3335396118
  O        22.8448446147        2.0432224284       13.4819953290
  O        21.6062473169        3.5928451323       14.5839258076
  O        42.0582194785       34.1373886002       15.9739093292
  O        37.9819247610       33.1380696744       13.5674369915
  O        39.2182919160       31.5763023414       14.6617499961
  O        20.3085205417        1.0396736240       14.4969556473
  O        38.0247073750       33.1859017195        2.4202132341
  O        39.2192119485       31.5838398183        1.3314355902
  O        40.6522774084       33.7693700995        2.0653813651
  O        18.2555330582        1.3761639304        0.0018933557
  O        44.6222332320       35.1005304455       14.7536025250
  O        24.2054055466        0.0000553486        1.3259192903
  O        22.7529846334        2.0578588977        2.5890648940
  O        21.6244951986        3.5961932289        1.3477687758
  O        27.4917290911       18.7509401738       13.4872336785
  O        26.7608364078       16.9349912254       14.6508689093
  O        30.6656614597       19.4079991222        0.0827008847
  O        33.5411238248       16.3390800026       13.5853132790
  O        34.2698301410       18.1695600928       14.7300824178
  O        29.5738194270       17.0693693484       14.5732243490
  O        33.5544675830       16.3430210147        2.4211465189
  O        34.2983349059       18.2420859917        1.4101165868
  O        31.6515977771       18.3130562941        2.1741119248
  O        30.3260504044       15.1612535014        0.0908314679
  O        28.5529287384       21.0367336108       14.8973924492
  O        28.5152300093       20.9553712842        1.4188643030
  O        27.4643811213       18.6754957108        2.6699690110
  O        26.6954826805       16.9304321015        1.4182721214
  O        13.1490392872       18.6930806291        2.5927146104
  O        13.9195224837       16.9159979526        1.4099034711
  O        50.5951528429       19.3501281990        0.0252644897
  O        47.6854982936       16.3261253891        2.4223381579
  O        46.9529670182       18.1754329078        1.3280940335
  O        11.0691961565       17.0156843307        1.4950896184
  O        47.6768329932       16.3351734958       13.6468206381
  O        46.9278770601       18.2353197736       14.6602601755
  O        49.5680149474       18.3178509533       13.9768911279
  O        10.3182504803       15.1004384291        0.0020183817
  O        52.6706605960       21.0279469529        1.2469354335
  O        12.1468291617       20.8909982865       14.6678639359
  O        13.1099293304       18.6132935908       13.3198531811
  O        13.9577644131       16.9866050295       14.6601525934
  O        29.9906163542       14.4394262649        2.7346726552
  O        28.0892735663       14.6539743693        1.4992005719
  O        32.1346886718       16.8613447033        0.0763994626
  O        30.9646018351       20.9483082317        2.4202431357
  O        32.9455108604       20.6039042037        1.3478434450
  O        29.5712174335       17.0787649172        1.5866936285
  O        30.8765171813       20.9522452270       13.6606681570
  O        32.8811079572       20.5890546103       14.6645607162
  O        31.6523933149       18.3115157827       13.9961187196
  O        28.2943593186       18.6787296543        0.0835002489
  O        32.4890797124       14.2120078491        1.3308398335
  O        32.4049881482       14.2267456050       14.8132818064
  O        29.9256758667       14.4478695084       13.4834933465
  O        28.0421347981       14.5914672282       14.7461357610
  O        17.8892738642        1.9666268749        2.6678964600
  O        18.9562793688        3.5271315380        1.4130359364
  O        39.1687577491       34.1388036678        0.0023267105
  O        43.2801616659       33.0590056727        2.3367828514
  O        42.0344775011       31.5065339903        1.2467497968
  O        20.3178180942        1.0368683219        1.4852726957
  O        43.2759852381       33.1826145128       13.5698434268
  O        42.0052223208       31.5841667196       14.5779011768
  O        40.5791949305       33.7752249448       13.9307281320
  O        22.3673555418        1.3845941743        0.0029990443
  O        36.6727774772       35.0997766870        1.2384151865
  O        16.4455682370        0.0642916466       14.6631801830
  O        17.9364939986        2.0433768147       13.3213127119
  O        18.9190946184        3.5931606494       14.6608152922
  O        29.7381555694       18.9728811890       12.0895900667
  O        29.7422460468       18.9747308555        4.1585566700
  O        31.2600189258       16.4842467708       12.0777076147
  O        31.2995630622       16.2615135055        4.0768169387
  O        32.2773083895       16.9264632085        9.6578081449
  O        27.1628753915       17.5807314935       10.0843892729
  O        30.3289252809       15.6110076023        6.8197645830
  O        31.5487776612       17.8735222286        6.9188357394
  O        31.0104218156       19.4167781690        9.5817000286
  O        28.8381880031       18.0300560526        6.5808118829
  O        39.4568580897       35.2438188769       11.9968517787
  O        19.1413267136        0.0045277046        3.9956333232
  O        41.9698157408       35.1731066974       12.0821054784
  O        21.6911863525       -0.0693425771        3.9009899984
  O        51.3649459947       18.6142268192       12.0005556150
  O        10.7512170371       18.7474416115        3.9099704566
  O        50.0804547628       16.4130612221       12.0861288468
  O         9.5245576004       16.4829796845        3.9965303763
 Zr         9.2921010748       16.0530220745       14.1769561477
 Zr        49.8329136327       16.0068240397        1.7518185674
 Zr        22.0734632936        0.0294386273       14.1838951648
 Zr        42.4611155633       35.1529297965        1.8060505569
 Zr        29.6056270201       19.1221638788       14.2704755820
 Zr        29.5943304320       19.1779371740        1.8895922620
 Zr        11.0348821788       19.0520860972        1.8318651451
 Zr        11.0407248579       19.1548561323       14.2470587508
 Zr        31.3638661439       16.1000094343        1.8720539073
 Zr        31.3862487355       16.0386080665       14.2648540826
 Zr        18.6012820397       -0.0014177427        1.7683537342
 Zr        18.5065905958       -0.0077889710       14.2087920912
 Zr        12.2976554377       16.3237410021       15.9847715485
 Zr        48.6113373383       18.8319199677        0.0147270567
 Zr        20.3152014005        2.4731371780       15.9852091824
 Zr        40.6439606327       32.6866855850       15.9731507060
 Zr        28.3609104657       16.3433943816        0.0872441754
 Zr        32.6323921626       18.8477930194        0.0536616018
  H        32.4156811300       18.2784202109        6.7500148844
  O        33.4176288308       15.0969708209        5.6646883182
  H        32.7812524952       14.8801993569        6.3673287888
  H        32.8787094493       15.6504160323        5.0574576495
  O        28.1769386963       19.6421044796        8.6561665072
  H        27.7901437525       19.3536275087        7.8017136367
  H        27.8241994171       18.9636315559        9.2931185972
  O        30.2896099105       20.5078168553        6.4873725453
  H        30.1363577715       20.0798571814        5.5896917407
  H        29.5992340315       21.1849291860        6.5754718416
  H        27.7982386270       16.9281782844       10.4299194263
  H        30.5030096871       15.4274525084        9.2474814636
