     577
 i =      295, E =     -4796.0955826423
  C        11.8589501214       14.0535694929       13.7364147532
  C        12.4565270802       12.8908358923       13.0179754505
  C        11.7046735456       12.1714571784       12.0767772728
  C        12.2811086998       11.1092905343       11.3844432023
  C        13.6218638278       10.7399369098       11.6118392149
  C        14.3552798168       11.4440630064       12.5846996894
  C        13.7823370852       12.5090356258       13.2761692742
  C        14.2613481534        9.6491999125       10.8385040198
  C        14.2565343252        9.6570339757        9.4168129396
  C        13.7435426347       10.7592567873        8.6629328373
  C        49.1270805751       21.2331394830       13.8744707423
  C        48.5503960337       22.4012388929       13.1475253829
  C        49.3003360425       23.0683096384       12.1662946601
  C        48.7334455608       24.1075019786       11.4331228552
  C        47.4030461654       24.5094781032       11.6619920397
  C        46.6722543174       23.8609416098       12.6758511627
  C        47.2346586593       22.8159986676       13.4051816153
  C        46.7727192844       25.5871198441       10.8647134493
  C        46.7615658823       25.5574205200        9.4429475852
  C        47.2616023692       24.4423797898        8.6994411254
  C        14.8603456879        8.5706266192        8.7035561363
  C        14.8920606039        8.5972311015       11.5151617733
  C        49.1133906374       21.2034141117        2.1504283957
  C        48.5280356735       22.3648773929        2.8775294405
  C        49.2671648709       23.0252767544        3.8707248819
  C        48.6909065169       24.0598669252        4.6022062177
  C        47.3606497107       24.4570079783        4.3637085254
  C        46.6403837894       23.8125031289        3.3398120535
  C        47.2138913140       22.7765896666        2.6079993467
  C        46.7221553647       25.5319254447        5.1547673303
  C        46.7337779740       25.5282194611        6.5764785599
  C        47.2493167413       24.4290731027        7.3328886811
  C        40.6323401687       17.1322448345        7.3303578214
  C        40.6593008359       17.1713404443        4.5213499739
  C        11.8832029090       14.0866084745        2.2906902267
  C        12.4726309465       12.9110215833        2.9950471080
  C        11.7150304981       12.1774766000        3.9208213063
  C        12.2816921309       11.0950316673        4.5891720136
  C        13.6206956553       10.7217357127        4.3576879013
  C        14.3588495130       11.4377803808        3.3973969060
  C        13.7933562923       12.5189558408        2.7247697481
  C        14.2542424108        9.6248810665        5.1280046193
  C        14.2528104060        9.6447600890        6.5498352850
  C        13.7430269089       10.7537624237        7.2968894236
  C        22.5110630158        3.2463330806       13.7458458597
  C        23.2214984150        4.3538428176       13.0430261392
  C        24.2149181189        4.0773345471       12.0919024185
  C        24.8377588655        5.1188984663       11.4083674676
  C        24.4836726641        6.4605766551       11.6547579366
  C        23.5180384729        6.7285427708       12.6423948689
  C        22.8905386394        5.6887729403       13.3242966835
  C        25.0868961669        7.5692003421       10.8781701198
  C        25.0593229570        7.5627623880        9.4562482753
  C        24.3574172859        6.5635442170        8.7097158042
  C        38.3036381876       31.9300958170       13.8446340126
  C        37.5767152972       30.8393710214       13.1359606466
  C        36.6176231299       31.1401735043       12.1570490575
  C        36.0047812989       30.1173325573       11.4390710517
  C        36.3369199046       28.7696836697       11.6790663804
  C        37.2657983750       28.4762846559       12.6948786731
  C        37.8827956234       29.4977576279       13.4115780544
  C        35.7382871184       27.6767905164       10.8820916747
  C        35.7670088884       27.6944928721        9.4610613836
  C        36.4734007543       28.6970336170        8.7245557304
  C        25.6833162442        8.6322424164        8.7358747104
  C        25.6845836782        8.6449425959       11.5477114182
  C        38.3284983241       31.9636795819        2.1609417952
  C        37.6037990359       30.8940855735        2.9036162802
  C        36.6832077806       31.2093851591        3.9147081191
  C        36.0691408779       30.1952861064        4.6466055732
  C        36.3608677029       28.8410209376        4.3893760334
  C        37.2587596998       28.5358302679        3.3481703388
  C        37.8758673003       29.5465169430        2.6182275237
  C        35.7485231001       27.7450591019        5.1737596734
  C        35.7716510512       27.7300966288        6.5953392996
  C        36.4761818562       28.7136566626        7.3580593681
  C        46.1356484577       26.6207859557        7.2866307764
  C        46.0881967385       26.5803199541        4.4787535187
  C        22.4609569002        3.2561378078        2.2617316653
  C        23.1551602307        4.3662163477        2.9823426813
  C        24.1591083148        4.0825911636        3.9218015143
  C        24.7868068996        5.1146723232        4.6151460873
  C        24.4306313930        6.4596817240        4.3913981506
  C        23.4497938522        6.7366112842        3.4204145555
  C        22.8174859824        5.7047873385        2.7275590205
  C        25.0601096793        7.5592648681        5.1646377649
  C        25.0467900081        7.5565647092        6.5872311707
  C        24.3493179067        6.5618608081        7.3430346703
  C        26.6199216986       17.8597175950       13.7862924586
  C        25.3129073728       17.9005114238       13.0612460948
  C        25.0696378345       18.8781824806       12.0835793152
  C        23.8569873041       18.9002042510       11.3971637231
  C        22.8531350502       17.9461691914       11.6624545828
  C        23.0951823215       16.9901259092       12.6672950493
  C        24.3084970377       16.9638855749       13.3538611197
  C        21.5805118554       17.9310299620       10.8969204200
  C        21.5801406051       17.9035587042        9.4740612942
  C        22.7849656552       17.7724164412        8.7135886983
  C        34.4220960321       17.2224889500       13.9084153034
  C        35.7118561906       17.1570138195       13.1606831448
  C        35.9043184202       16.1971673212       12.1545058981
  C        37.0873305190       16.1764492220       11.4197594838
  C        38.1096194389       17.1126882910       11.6720451677
  C        37.9179163713       18.0523272658       12.7030328084
  C        36.7331889976       18.0793204980       13.4343830054
  C        39.3669785990       17.1167795235       10.8902616877
  C        39.3676575107       17.1406993180        9.4687769945
  C        38.1641694276       17.2728160638        8.7068264571
  C        20.3333387532       17.9240212972        8.7653834499
  C        20.3549270709       17.9385216309       11.5783642618
  C        34.4804855638       17.2491493753        2.1834980861
  C        35.7840074123       17.1755371568        2.9055142250
  C        35.9971061726       16.1915236718        3.8825060838
  C        37.1821993938       16.1740866972        4.6122480364
  C        38.1817800843       17.1395748526        4.3836645297
  C        37.9749282995       18.0984751246        3.3747890639
  C        36.7874846804       18.1213290853        2.6481487462
  C        39.4265406819       17.1573746697        5.1819696245
  C        39.3982720959       17.1624360172        6.6026822342
  C        38.1783833558       17.2809959407        7.3404211882
  C        35.1422229879       26.6495995554        7.2982161078
  C        35.1420056328       26.6847637960        4.4898833309
  C        26.5908550157       17.7963883702        2.3676362140
  C        25.2725085325       17.8485792439        3.0650581200
  C        24.9989021720       18.8624734385        3.9954843096
  C        23.7755301451       18.8936179626        4.6587118874
  C        22.7961825987       17.9100433584        4.4150754444
  C        23.0626779029       16.9224819878        3.4498070685
  C        24.2863469614       16.8904204516        2.7839399571
  C        21.5301543796       17.8940198498        5.1843717128
  C        21.5542312286       17.8845855022        6.6058813498
  C        22.7725200031       17.7640347788        7.3473258518
  C        14.0477955716       17.8286526785        2.2945387334
  C        15.3520168511       17.8848220936        3.0199977886
  C        15.6089950282       18.8859718129        3.9699345502
  C        16.8179244808       18.9052757229        4.6631195770
  C        17.8050134909       17.9262060604        4.4294207367
  C        17.5528111344       16.9496837659        3.4470528458
  C        16.3434508135       16.9257360870        2.7552947818
  C        19.0741183310       17.9072368963        5.1988575443
  C        19.0728688048       17.9051002088        6.6215925519
  C        17.8658304940       17.8090539617        7.3831759321
  C        46.8075497276       17.2206351261        2.1654167213
  C        45.5207367333       17.1645862516        2.9165094602
  C        45.3162361870       16.1900339425        3.9052176662
  C        44.1372636409       16.1773112841        4.6455943452
  C        43.1341752065       17.1393660587        4.4180328973
  C        43.3367591938       18.0949300526        3.4041569984
  C        44.5163711335       18.1114819855        2.6649997269
  C        41.8805995393       17.1523429704        5.2047297939
  C        41.8815957735       17.1462927293        6.6264483108
  C        43.0879454840       17.2359086512        7.3897492391
  C        20.3195854046       17.9135834014        7.3304402995
  C        20.2987276180       17.8848046556        4.5168349973
  C        46.7834660516       17.2295905434       13.8863386667
  C        45.4766143642       17.1192194788       13.1761131514
  C        45.2572096875       16.1202536057       12.2155884686
  C        44.0672592463       16.0911570262       11.4921776851
  C        43.0667693158       17.0575564009       11.7128776668
  C        43.2754456229       18.0245769767       12.7138831434
  C        44.4668671771       18.0603912253       13.4317966564
  C        41.8217475345       17.0826707395       10.9130218278
  C        41.8515768260       17.1090804831        9.4921887192
  C        43.0736880313       17.2157596616        8.7560658050
  C        46.1534118567       26.6372170550        8.7211852188
  C        46.1626980729       26.6562190779       11.5308331330
  C        14.0465664998       17.8322551896       13.7037486553
  C        15.3678973071       17.9074010936       13.0146266043
  C        15.6412666342       18.9214131043       12.0843105086
  C        16.8707729618       18.9587611593       11.4303571212
  C        17.8550780380       17.9812079867       11.6803613826
  C        17.5887695606       16.9968612643       12.6495844522
  C        16.3613553113       16.9588875518       13.3070915390
  C        19.1225014037       17.9547136699       10.9114210319
  C        19.0981485663       17.9275476510        9.4899665933
  C        17.8783353165       17.8187846591        8.7492050211
  C        28.8096052376       14.0888918873        2.3688920587
  C        28.2029004736       12.9159397420        3.0623450298
  C        28.9282672475       12.1697834650        4.0027294649
  C        28.3264198699       11.0995737243        4.6607417072
  C        26.9862381448       10.7489666104        4.3991062695
  C        26.2829262512       11.4744819533        3.4210484341
  C        26.8812773702       12.5465854259        2.7644465281
  C        26.3143815082        9.6708512008        5.1615898768
  C        26.2955336793        9.7009293170        6.5822198459
  C        26.7950864645       10.8166240048        7.3260877333
  C        32.1541924219       21.2724930398        2.1496678098
  C        32.7341258020       22.4463240824        2.8641971050
  C        31.9948985886       23.0992765320        3.8620330094
  C        32.5657763886       24.1379103480        4.5915630506
  C        33.8905711758       24.5471001871        4.3452250467
  C        34.6097091078       23.9135460360        3.3142238863
  C        34.0414238453       22.8719504180        2.5852286916
  C        34.5283446765       25.6137353065        5.1483471093
  C        34.5385324590       25.5730244152        6.5696093353
  C        34.0368793974       24.4532655941        7.3055358402
  C        25.6821360302        8.6251146735        7.3013397095
  C        25.6794033408        8.6190255113        4.4882013955
  C        32.1074123980       21.2334619782       13.8818630918
  C        32.7017990454       22.3808563712       13.1365229761
  C        31.9721700084       23.0354305195       12.1320857959
  C        32.5560918280       24.0619489518       11.3941327080
  C        33.8832788680       24.4633862594       11.6419412534
  C        34.5959044567       23.8219595807       12.6733732804
  C        34.0169313618       22.7898451968       13.4068175700
  C        34.5249908537       25.5428902725       10.8577892737
  C        34.5360645621       25.5371615958        9.4358365666
  C        34.0351464707       24.4363431298        8.6720876025
  C        40.6167084895       17.1168685387        8.7644959916
  C        40.5885308797       17.1036788696       11.5738525830
  C        28.7220204984       14.1007537861       13.7760886473
  C        28.1151985247       12.9527247312       13.0407575527
  C        28.8465807001       12.2573503568       12.0656834884
  C        28.2662420042       11.1941763041       11.3782923133
  C        26.9379803551       10.8007466493       11.6383602953
  C        26.2239829961       11.4842947801       12.6405510283
  C        26.8029634911       12.5465369150       13.3315421315
  C        26.2955828827        9.7080288755       10.8693555846
  C        26.2860101329        9.7210354566        9.4473987253
  C        26.7869987725       10.8278682228        8.6917795648
  C        18.1353704727        3.1810469498        2.3222610820
  C        17.4061035577        4.2782888389        3.0208469708
  C        16.3902742976        3.9999707404        3.9482639869
  C        15.7425958166        5.0399892407        4.6117423202
  C        16.0946502721        6.3837005250        4.3721742394
  C        17.0841382343        6.6531788467        3.4085000230
  C        17.7331654802        5.6158060308        2.7434390785
  C        15.4703723949        7.4913992626        5.1352519060
  C        15.4854505661        7.4905620613        6.5569678587
  C        16.1868207367        6.4968198599        7.3101421285
  C        42.9459580703       31.8595772047        2.0780012195
  C        43.6463790652       30.7719219648        2.8220122540
  C        44.5918827802       31.0932513286        3.8080953429
  C        45.1976004881       30.0877030042        4.5557620949
  C        44.8711849719       28.7346465189        4.3408621441
  C        43.9453511202       28.4203056795        3.3276668269
  C        43.3364953766       29.4254506024        2.5796582737
  C        45.4888094564       27.6553425755        5.1440214694
  C        45.4928533293       27.6808648813        6.5657174180
  C        44.8055845890       28.6887878858        7.3123416082
  C        14.8566172504        8.5631225530        7.2693425503
  C        14.8753611602        8.5633322968        4.4566698748
  C        42.9464514861       31.9616437807       13.8039095082
  C        43.6917298315       30.8855056478       13.0903784098
  C        44.6562525502       31.1914019578       12.1180144854
  C        45.2777931250       30.1718089794       11.4002998465
  C        44.9540979792       28.8214888565       11.6380053158
  C        44.0206700617       28.5238422744       12.6488345067
  C        43.3923868569       29.5406127111       13.3609976851
  C        45.5631903050       27.7240931570       10.8527713863
  C        45.5333435252       27.7173213643        9.4314736264
  C        44.8268418297       28.7074329631        8.6785273647
  C        35.1408432341       26.6310329229        8.7326238386
  C        35.1363447389       26.6000671575       11.5421935279
  C        18.1485249671        3.2470128895       13.7014425853
  C        17.4299817171        4.3438443911       12.9921975321
  C        16.4146088446        4.0526019986       12.0687881993
  C        15.7663149273        5.0832631562       11.3934409501
  C        16.1211603211        6.4284772329       11.6160299511
  C        17.1127351466        6.7118390652       12.5730930249
  C        17.7603753781        5.6828987633       13.2528406698
  C        15.4906823029        7.5241746367       10.8435846033
  C        15.4964310095        7.5074566000        9.4224536732
  C        16.1929933207        6.5056245513        8.6757451568
  H        10.6724008134       12.4652465267       11.9000649849
  H        11.6947963525       10.5504456420       10.6582125912
  H        15.3925421928       11.1700304810       12.7659353426
  H        14.3520692213       13.0727974209       14.0109878125
  H        13.3767663817       11.6314740699        9.1962646136
  H        50.3229479173       22.7480778611       11.9813283233
  H        49.3199050182       24.6225966110       10.6754075035
  H        45.6429377194       24.1620996488       12.8593805570
  H        46.6638217792       22.2910589731       14.1676091288
  H        47.6303842548       23.5760935256        9.2411025211
  H        14.8726079884        8.5886209458       12.6034776053
  H        50.2871067975       22.7021898247        4.0658255754
  H        49.2692917723       24.5751026458        5.3658617102
  H        45.6111751286       24.1101987921        3.1504074842
  H        46.6532578813       22.2548288982        1.8360303409
  H        47.6082988454       23.5520321041        6.8020001042
  H        40.6691269393       17.1417308485        3.4335141920
  H        48.6873101453       14.0951743594       15.7949759607
  H        10.6814131103       12.4661885693        4.0979174062
  H        11.6899228405       10.5243103442        5.3016216021
  H        15.3945212718       11.1604748909        3.2119340015
  H        14.3658983633       13.0888137133        1.9967765027
  H        13.3765102971       11.6225049623        6.7582488121
  H        47.9303191792       14.2189088538        1.7159829848
  H        47.7802687997       14.3749732344       14.4904901463
  H        49.0856953506       18.5531350617        2.8728150383
  H        10.4165642879       14.1343106795        0.0037639273
  H        24.4773020640        3.0395418904       11.8984713488
  H        25.6082109384        4.9026014331       10.6714347326
  H        23.2357693939        7.7605886820       12.8400576918
  H        22.1230855914        5.8878647559       14.0683234394
  H        23.7944331996        5.8079145912        9.2498364743
  H        36.3778168588       32.1825862317       11.9611413098
  H        35.2605642505       30.3525150751       10.6814010252
  H        37.5287491975       27.4380544350       12.8865423112
  H        38.6262437441       29.2806633225       14.1748071739
  H        37.0439247641       29.4424474560        9.2709024627
  H        25.7208720990        8.6281546584       12.6355285214
  H        36.4704375851       32.2552205931        4.1242009124
  H        35.3501420464       30.4446610530        5.4238120152
  H        37.4948505055       27.4936689264        3.1436004791
  H        38.5921178082       29.3163763481        1.8332358889
  H        37.0503122506       29.4711160904        6.8322298705
  H        46.1097461999       26.5878513929        3.3907153392
  H        44.6680655614       35.1161872708       15.8088721138
  H        24.4379773694        3.0448749926        4.0903545291
  H        25.5684743025        4.8880574485        5.3371098491
  H        23.1632669800        7.7705142570        3.2389145170
  H        22.0442803050        5.9154564366        1.9923438667
  H        23.7795422298        5.8054681683        6.8110846016
  H        44.9531473968       34.3898687241        1.7000281027
  H        44.9009700318       34.2065667333       14.4855640081
  H        40.6659073040       33.2092029609        2.8581942628
  H        23.1502962767        1.9582726685        0.0094793585
  H        25.8458172623       19.6112158458       11.8745114766
  H        23.6738361645       19.6654333823       10.6458928661
  H        22.3328931060       16.2437199568       12.8813710844
  H        24.5045963065       16.2125127182       14.1152812208
  H        23.7261215891       17.6485065845        9.2414363394
  H        35.1125344640       15.4771439704       11.9591321754
  H        37.2366234276       15.4234605359       10.6489414387
  H        38.6982890912       18.7840237867       12.9018881265
  H        36.5692807676       18.8192081423       14.2145093977
  H        37.2241831883       17.3987660162        9.2360233218
  H        20.3615037497       17.9834771293       12.6660463848
  H        35.2140118089       15.4589980502        4.0645124399
  H        37.3485405204       15.4084520224        5.3669217935
  H        38.7410217070       18.8498982093        3.1949444723
  H        36.6043427905       18.8792685951        1.8901144954
  H        37.2495913939       17.4115896678        6.7925679168
  H        35.1018762830       26.7194697400        3.4028518920
  H        28.5090835790       21.0845576956       15.9825224181
  H        25.7548835887       19.6229432840        4.1776452982
  H        23.5635226892       19.6833117813        5.3762718202
  H        22.3143456804       16.1568700031        3.2554902809
  H        24.5076288251       16.1167578493        2.0526334825
  H        23.7040906064       17.6325097564        6.8047706367
  H        28.9871650151       21.7130660322        1.7885068051
  H        29.1424112880       21.7561533141       14.6183061516
  H        32.1790637621       18.5940614567        2.9672440224
  H        27.3943855240       19.0659241563        0.1058763876
  H        14.8508979904       19.6449723794        4.1498026494
  H        17.0128365968       19.6881899050        5.3929008518
  H        18.3040102104       16.1858646420        3.2566625793
  H        16.1382254290       16.1580962610        2.0129414490
  H        16.9229524459       17.6944419113        6.8563980843
  H        46.0979914866       15.4559943396        4.0858784230
  H        43.9777746006       15.4132145871        5.4032003857
  H        42.5701213312       18.8460823769        3.2257596432
  H        44.6902893578       18.8628113575        1.8982979977
  H        44.0314532982       17.3523546875        6.8641113446
  H        20.2933694346       17.9141814388        3.4286637326
  H        46.0356001835       15.3821344094       12.0359859528
  H        43.9011931629       15.3170817318       10.7460841000
  H        42.5080250494       18.7751682032       12.8912856579
  H        44.6497660396       18.8271921905       14.1805885333
  H        44.0062782503       17.3155430481        9.3038071545
  H        46.1997118268       26.6828931218       12.6182718981
  H        52.7415125656       21.0628273690        0.1998416771
  H        14.8803379361       19.6741420789       11.8902745314
  H        17.0815155342       19.7480375515       10.7119374997
  H        18.3401353267       16.2360813936       12.8509911754
  H        16.1409704881       16.1855523251       14.0389120735
  H        16.9446943405       17.7118669086        9.2932267968
  H        52.3234630372       21.6736260601       14.2887848145
  H        52.0138817664       21.7025434532        1.5008548021
  H        49.0678983187       18.6076600085       13.1987658946
  H        13.2481905571       19.0157844325       15.9724031856
  H        29.9620890629       12.4426847169        4.2024542009
  H        28.8891326098       10.5208537562        5.3900596744
  H        25.2474362616       11.2141309880        3.2116562528
  H        26.3346300328       13.1290345506        2.0269544150
  H        27.1578652517       11.6854470546        6.7847704124
  H        30.9801503850       22.7647885707        4.0645008935
  H        31.9886440896       24.6437543960        5.3624716650
  H        35.6348387301       24.2214959964        3.1189520905
  H        34.6021658952       22.3550911961        1.8099569244
  H        33.6746421585       23.5880088747        6.7577621502
  H        25.7127285085        8.5973498792        3.4003291513
  H        30.9501931652       22.7218111233       11.9327313451
  H        31.9828651343       24.5697709811       10.6216038015
  H        35.6232507488       24.1214346245       12.8702170453
  H        34.5718997811       22.2723758887       14.1858820713
  H        33.6707571572       23.5581748585        9.1974377559
  H        40.5781588477       17.0580423254       12.6612149882
  H        32.5142312957       14.1541999617        0.2625379064
  H        29.8722527482       12.5584134841       11.8651735499
  H        28.8415201616       10.6505843438       10.6321219036
  H        25.1957984694       11.1947745085       12.8477975623
  H        26.2482306462       13.0894754318       14.0931311824
  H        27.1429011148       11.7060800322        9.2224350637
  H        33.2900900870       14.1959368137       14.4247224172
  H        33.4120461081       14.4031677560        1.6073799745
  H        32.1434171656       18.5787526222       13.2045795942
  H        30.2324546932       14.1967007597        0.0689188368
  H        16.1180800342        2.9634842898        4.1345768431
  H        14.9530263643        4.8206269080        5.3272755424
  H        17.3666797464        7.6860411538        3.2154702388
  H        18.5152433850        5.8184730434        2.0156420923
  H        16.7532647986        5.7393915789        6.7766528926
  H        44.8281209190       32.1403445649        3.9822730466
  H        45.9374442806       30.3414518146        5.3117301925
  H        43.6826360044       27.3782381584        3.1575838793
  H        42.5997891451       29.1901366429        1.8150718437
  H        44.2301387118       29.4364752210        6.7740170345
  H        14.8518162658        8.5467458497        3.3684426497
  H        44.8997148801       32.2340969954       11.9265315741
  H        46.0246421713       30.4130404936       10.6470068430
  H        43.7637897886       27.4841060584       12.8404604440
  H        42.6459266540       29.3178373765       14.1194904804
  H        44.2682070688       29.4702199488        9.2131253322
  H        35.0946781929       26.6116552506       12.6296776120
  H        36.6048504910       35.1341176886        0.1857443577
  H        16.1433568667        3.0130483417       11.8991803933
  H        14.9738361694        4.8564706432       10.6835092911
  H        17.3964133427        7.7472865985       12.7498389683
  H        18.5433949670        5.8933463954       13.9774425268
  H        16.7643166705        5.7553003916        9.2141797943
  H        36.2781415341       34.4828112352       14.2679154955
  H        36.3802558153       34.2095979711        1.5049659852
  H        40.5803889113       33.2026918038       13.1484846707
  H        17.4706396895        1.9475237112       15.9688801266
  H        28.9481910516       19.1426686977        4.5017440713
  H        29.9154053042       19.9769730499       11.7180317417
  H        32.1736462088       16.2346788781       10.4731270368
  H        30.8858422591       15.5694845414        4.4397701144
  H        29.1419251056       16.5049639516        6.7243543302
  H        31.4379205512       13.7326176058        8.0655029194
  H        31.4420553219       19.6752584495        9.2892174840
  H        33.2428616132       17.0699731673        9.6750155413
  H        28.9593353494       16.5080029746        9.2409966052
  H        18.8529783908        0.8688835449        4.3404763403
  H        40.5276903938       35.2292646245       11.9469290998
  H        42.3243834060       34.4191792472       11.5855604364
  H        22.0877246819        0.6921110890        4.3567599827
  H        11.5969181706       18.7129157325        4.3878082054
  H        52.2652682541       18.4314061088       11.6722054890
  H        49.2548343645       16.4771783644       11.5794621005
  H        10.1504582685       15.7983398423        4.2977719737
  H        50.8505568931       17.6926588100       11.9489752766
  H        10.0464069307       17.3946648385        4.0569612255
  H        20.2139586496        0.0021567955        4.0472383506
  H        39.1834562452       36.1244427549       11.6813088186
  H        32.8072319198       17.9152479463        6.5837536391
 Ni        30.3952652783       17.8915562147       10.9108833886
 Ni        31.2451368254       16.4595040510        7.9157936866
 Ni        29.4601062121       18.9155752496        8.4070137745
 Ni        30.5996549494       17.6768387156        5.4110416223
  O        10.6500048905       14.3651487301       13.4807458791
  O        12.6132197180       14.6575130142       14.5788050375
  O        49.1479451447       16.8458461338       15.9845082131
  O        50.3503529089       20.9356751995       13.6428248829
  O        48.3485853101       20.5933029640       14.6607308276
  O        11.0519352076       17.0537587166       14.4957052450
  O        50.3210500560       20.8816133481        2.4119690503
  O        48.3467631150       20.5867237807        1.3322203403
  O        49.5443171835       18.2484004383        2.0732111291
  O        12.3593561190       18.6247324748        0.0047918556
  O        48.6932364905       14.1486336923       14.7461866083
  O         8.2099563693       14.2104054226        1.3276237875
  O        10.7353927828       14.5067955226        2.6694275857
  O        12.5718362341       14.5828033968        1.3335996229
  O        22.8452750656        2.0451655436       13.4814512956
  O        21.6057972238        3.5929228306       14.5842014728
  O        42.0583373341       34.1375473575       15.9737725547
  O        37.9820240985       33.1380812393       13.5676375049
  O        39.2189353464       31.5767936859       14.6624482229
  O        20.3085100646        1.0397959057       14.4968677190
  O        38.0253257948       33.1875482445        2.4196797542
  O        39.2190992524       31.5841147616        1.3318771063
  O        40.6524166990       33.7696004860        2.0653813051
  O        18.2553235267        1.3763553834        0.0018238333
  O        44.6222027698       35.1005853610       14.7536267437
  O        24.2054071680        0.0000283293        1.3259272856
  O        22.7530903090        2.0584080629        2.5890013669
  O        21.6242002135        3.5959032526        1.3470615159
  O        27.4905961819       18.7494895474       13.5014941502
  O        26.7679952243       16.9272278560       14.6553896156
  O        30.6664445427       19.4073258653        0.0857384839
  O        33.5434658023       16.3312044289       13.6464813446
  O        34.2770433510       18.1804494249       14.7378350415
  O        29.5730841720       17.0721852719       14.5717102360
  O        33.6233187099       16.3318179114        2.4166477574
  O        34.3072772727       18.2509771912        1.4103246595
  O        31.7070347062       18.3166119108        2.1655260225
  O        30.3268225652       15.1632928748        0.0823376490
  O        28.5524033440       21.0362598036       14.9060359671
  O        28.5126993334       20.9481551309        1.4207081209
  O        27.4984491388       18.6125706087        2.7407222268
  O        26.6962980612       16.9320127278        1.4224134648
  O        13.1492961102       18.6927656938        2.5925626092
  O        13.9196289482       16.9162689055        1.4102789878
  O        50.5966272410       19.3502152463        0.0254119797
  O        47.6837552016       16.3269360432        2.4224265154
  O        46.9521589092       18.1760187385        1.3294026068
  O        11.0702714129       17.0153602175        1.4946616557
  O        47.6747618129       16.3356863519       13.6478746522
  O        46.9259579388       18.2359920666       14.6589959058
  O        49.5688245919       18.3176892708       13.9771248827
  O        10.3188204333       15.1001211537        0.0021795215
  O        52.6708048092       21.0278580159        1.2469101251
  O        12.1468761010       20.8912426563       14.6682131110
  O        13.1083268837       18.6136220033       13.3205382368
  O        13.9572453307       16.9871523483       14.6602496332
  O        30.0020115306       14.4382103418        2.6763821747
  O        28.0810829919       14.6581827870        1.4896722425
  O        32.1368663251       16.8610099344        0.0850491637
  O        30.9524751334       20.9498846371        2.4243038869
  O        32.9201890238       20.6545909295        1.3317064442
  O        29.5785984380       17.0780315955        1.5819970831
  O        30.8768031432       20.9547012122       13.6632786891
  O        32.8808544572       20.5846446689       14.6619551668
  O        31.6771211279       18.2585269940       13.9921389795
  O        28.2839319778       18.6761315272        0.0973428117
  O        32.4951760647       14.2139036470        1.3344098491
  O        32.3995042063       14.2204370866       14.8121384939
  O        29.8784900636       14.5106588756       13.4067881113
  O        28.0447843628       14.5858534538       14.7442315640
  O        17.8891791873        1.9666649420        2.6679220409
  O        18.9562412446        3.5271564763        1.4130883062
  O        39.1687098722       34.1389834799        0.0022594298
  O        43.2802882646       33.0590034001        2.3368214154
  O        42.0346453161       31.5064415543        1.2467666705
  O        20.3178250657        1.0369457047        1.4851281506
  O        43.2760858364       33.1826135500       13.5697730638
  O        42.0053347453       31.5840962124       14.5778955774
  O        40.5791092435       33.7751443405       13.9307738625
  O        22.3673927629        1.3847716389        0.0028977906
  O        36.6726816042       35.0999392820        1.2382952843
  O        16.4455290254        0.0643228243       14.6631236285
  O        17.9364448373        2.0433916937       13.3212565854
  O        18.9190482111        3.5931430586       14.6607802331
  O        29.7380587723       19.1289995127       12.1693410617
  O        29.7926370179       18.9057363020        4.0773963071
  O        31.1714150057       16.3296252099       11.9846656246
  O        31.3484365627       16.3426056810        4.0627586900
  O        32.6120169554       16.3388586684        9.5705324245
  O        29.7490318277       17.0777611626        9.2563434394
  O        29.9924683242       16.0530513905        6.4856125765
  O        31.8926045604       18.0143546998        6.9010834459
  O        30.5915196042       19.5586724144        9.7494847405
  O        28.5214729712       18.1751038475        6.9963347542
  O        39.4567581358       35.2438486542       11.9968286147
  O        19.1408920975        0.0044115171        3.9957381567
  O        41.9698191934       35.1729940332       12.0821465822
  O        21.6913631295       -0.0692761195        3.9010244896
  O        51.3653099392       18.6143282058       12.0002451943
  O        10.7512136430       18.7470699422        3.9100238610
  O        50.0792434686       16.4126845511       12.0866664032
  O         9.5244738280       16.4831445585        3.9962967580
 Zr         9.2982417523       16.0528437375       14.1774286690
 Zr        49.8378173685       16.0066203369        1.7512383674
 Zr        22.0732097827        0.0303159374       14.1839080221
 Zr        42.4607589397       35.1536840145        1.8060781395
 Zr        29.5857283736       19.1168864495       14.3094608573
 Zr        29.5909310503       19.1656148097        1.9053043880
 Zr        11.0394872273       19.0517724906        1.8330135969
 Zr        11.0452937133       19.1547363398       14.2454968679
 Zr        31.3630156757       16.1047655431        1.9038737037
 Zr        31.3921858966       16.0377306918       14.2838671561
 Zr        18.6009819275       -0.0009952315        1.7682927750
 Zr        18.5062848624       -0.0076543793       14.2086791638
 Zr        12.3039893734       16.3237118027       15.9852161340
 Zr        48.6182001764       18.8335032089        0.0149508054
 Zr        20.3150631366        2.4736124942       15.9851765849
 Zr        40.6435282839       32.6873047062       15.9733579624
 Zr        28.3458206319       16.3505941476        0.0872928658
 Zr        32.6260397416       18.8525497564        0.0706329792
  O        30.7129029467       14.3508331346        8.2533500575
  H        30.2559829550       14.5243622210        7.3859336034
  H        30.5566578892       15.5829155254       11.8319275189
  H        29.1904898751       20.2471520391        7.9348497925
  H        27.8111653795       18.7546041762        6.6789732468
