     577
 i =      219, E =     -4796.0588384802
  C        11.8589777072       14.0535061587       13.7364114162
  C        12.4564967724       12.8907557601       13.0180602725
  C        11.7046968627       12.1714700548       12.0767331383
  C        12.2811312718       11.1092896290       11.3844322686
  C        13.6218690540       10.7398640966       11.6118731618
  C        14.3552117293       11.4438813135       12.5848765480
  C        13.7822752023       12.5088600502       13.2763332961
  C        14.2613267321        9.6491326017       10.8385221069
  C        14.2564605194        9.6569888003        9.4168368132
  C        13.7433740208       10.7591728903        8.6629682910
  C        49.1271195176       21.2331825796       13.8744746244
  C        48.5504834984       22.4013131580       13.1475740693
  C        49.3003507366       23.0682434003       12.1661915199
  C        48.7334691860       24.1074537403       11.4330373512
  C        47.4031201652       24.5095355920       11.6620226582
  C        46.6724451426       23.8611878940       12.6760903174
  C        47.2348283217       22.8162241704       13.4053943891
  C        46.7727692942       25.5871418691       10.8647302285
  C        46.7615267152       25.5573735249        9.4429693118
  C        47.2615533859       24.4423280318        8.6994588444
  C        14.8603311192        8.5706237141        8.7035725758
  C        14.8921651840        8.5972394356       11.5151871143
  C        49.1134200414       21.2034412777        2.1504170973
  C        48.5280949068       22.3649124726        2.8775226076
  C        49.2671548445       23.0252140823        3.8708334154
  C        48.6908785328       24.0597997066        4.6023101092
  C        47.3606647006       24.4570306585        4.3637198886
  C        46.6404961544       23.8126476404        3.3396743581
  C        47.2140111042       22.7767427439        2.6078660059
  C        46.7221469692       25.5319234097        5.1547871719
  C        46.7337046812       25.5281573239        6.5764979888
  C        47.2492338170       24.4290029722        7.3329054248
  C        40.6346245455       17.1401594923        7.3301148853
  C        40.6630140272       17.1860507027        4.5215427307
  C        11.8832353883       14.0865365657        2.2907008138
  C        12.4726363597       12.9110110285        2.9950599176
  C        11.7150487077       12.1774415211        3.9208452784
  C        12.2817573087       11.0950310380        4.5891915764
  C        13.6207699536       10.7217441993        4.3576923099
  C        14.3588843303       11.4377894154        3.3973631256
  C        13.7933540826       12.5189278044        2.7247164172
  C        14.2543145655        9.6249146335        5.1280231679
  C        14.2527381694        9.6447331002        6.5498500817
  C        13.7428985536       10.7536949734        7.2969266356
  C        22.5120824636        3.2458856808       13.7463520279
  C        23.2251339959        4.3514681523       13.0444015875
  C        24.2205257220        4.0718835147       12.0961350348
  C        24.8463691386        5.1112756851       11.4122989814
  C        24.4931480986        6.4537017947       11.6554638315
  C        23.5257060221        6.7246956050       12.6405717950
  C        22.8953631803        5.6871742028       13.3230803794
  C        25.0983232225        7.5607521352       10.8786252613
  C        25.0726047526        7.5534802962        9.4566375287
  C        24.3745102242        6.5520923652        8.7095834809
  C        38.3028774950       31.9307718239       13.8453528461
  C        37.5732958737       30.8407823556       13.1377320157
  C        36.6118545362       31.1433662009       12.1616868851
  C        35.9959638677       30.1218231795       11.4445122952
  C        36.3277185792       28.7737731402       11.6823229406
  C        37.2590031552       28.4784973713       12.6953400703
  C        37.8787840470       29.4987499025       13.4114894794
  C        35.7276715572       27.6821070221       10.8846691533
  C        35.7565040557       27.7008739829        9.4635469459
  C        36.4621067274       28.7044514985        8.7276408875
  C        25.6936487616        8.6249995050        8.7367023435
  C        25.6941496881        8.6369358420       11.5487494976
  C        38.3290576924       31.9640638499        2.1613204348
  C        37.6048320729       30.8947832642        2.9053513773
  C        36.6811413620       31.2110996785        3.9132443637
  C        36.0662127695       30.1977858247        4.6455277796
  C        36.3604256600       28.8434656383        4.3918332520
  C        37.2622130109       28.5371208158        3.3544066684
  C        37.8800090029       29.5470695881        2.6239934768
  C        35.7463058081       27.7482680536        5.1759165829
  C        35.7659125983       27.7350287404        6.5975556812
  C        36.4672109650       28.7202706078        7.3611179352
  C        46.1355371739       26.6207027700        7.2866503092
  C        46.0882388092       26.5803415118        4.4787609761
  C        22.4625132832        3.2561850693        2.2616125652
  C        23.1598233515        4.3647576051        2.9811142550
  C        24.1655264078        4.0788068876        3.9181877262
  C        24.7962664707        5.1091218129        4.6114087703
  C        24.4413444288        6.4549760941        4.3905296721
  C        23.4591899276        6.7341728535        3.4213732524
  C        22.8240338510        5.7042145156        2.7283211122
  C        25.0716437928        7.5535027408        5.1647249743
  C        25.0597125739        7.5489347154        6.5873988580
  C        24.3664390452        6.5511659018        7.3428570068
  C        26.6213275418       17.8624893944       13.7843170181
  C        25.3132222921       17.9040027635       13.0597992687
  C        25.0614357873       18.8893285293       12.0920143196
  C        23.8489680688       18.9086496572       11.4049891865
  C        22.8519191385       17.9453903656       11.6622732673
  C        23.1009723262       16.9825414621       12.6586673713
  C        24.3151032802       16.9580908592       13.3440269030
  C        21.5788993513       17.9292783270       10.8972714793
  C        21.5782558045       17.9011731431        9.4746541120
  C        22.7830427974       17.7695382778        8.7144869479
  C        34.4228841347       17.2226474535       13.9079472046
  C        35.7125542239       17.1581952991       13.1585582764
  C        35.9134709798       16.1863619041       12.1652660378
  C        37.0953081397       16.1664160845       11.4283911348
  C        38.1096623571       17.1145663471       11.6684086067
  C        37.9105401529       18.0654925372       12.6870297207
  C        36.7260597157       18.0923010684       13.4190396358
  C        39.3679331517       17.1176211548       10.8882420064
  C        39.3688995632       17.1414162339        9.4671825687
  C        38.1651693497       17.2700187151        8.7049782370
  C        20.3317156159       17.9200112716        8.7657233378
  C        20.3534801661       17.9366769136       11.5788156955
  C        34.4868116454       17.2464264029        2.1761085934
  C        35.7903609527       17.1813570107        2.9008806966
  C        36.0092638112       16.1918485414        3.8705622185
  C        37.1933800198       16.1771310346        4.6017693784
  C        38.1859520578       17.1514824310        4.3818227420
  C        37.9736477236       18.1170632622        3.3807665601
  C        36.7868182398       18.1365996131        2.6525111806
  C        39.4299808084       17.1697923720        5.1812134437
  C        39.4010061485       17.1700675532        6.6017464760
  C        38.1799078835       17.2817613110        7.3386215841
  C        35.1358534904       26.6546501603        7.2998805989
  C        35.1418344927       26.6871159442        4.4915231555
  C        26.5877884376       17.7948924812        2.3671376805
  C        25.2705389984       17.8436765762        3.0658022988
  C        25.0042247906       18.8481134097        4.0080391084
  C        23.7800500412       18.8800118913        4.6693569319
  C        22.7948192820       17.9051321654        4.4149114450
  C        23.0555336224       16.9259112391        3.4393632419
  C        24.2791944665       16.8941462302        2.7735176426
  C        21.5292429091       17.8883712195        5.1845202379
  C        21.5527780951       17.8781600871        6.6061879820
  C        22.7707934995       17.7578958017        7.3483044123
  C        14.0475017196       17.8282097571        2.2947523498
  C        15.3513911331       17.8831715580        3.0206916010
  C        15.6086803275       18.8835564782        3.9712934436
  C        16.8175111053       18.9016119066        4.6646347321
  C        17.8039675311       17.9221234967        4.4302122688
  C        17.5514278967       16.9463048969        3.4472924428
  C        16.3421486934       16.9235417699        2.7554620320
  C        19.0730120188       17.9020467704        5.1995363834
  C        19.0715421454       17.8992460526        6.6221749066
  C        17.8644715721       17.8029979323        7.3836399801
  C        46.8081902579       17.2215025904        2.1655992993
  C        45.5221447046       17.1682610772        2.9175258440
  C        45.3160641876       16.1945373445        3.9065738340
  C        44.1375921742       16.1854306199        4.6476614334
  C        43.1372269243       17.1501566471        4.4198270384
  C        43.3413908427       18.1049470553        3.4057119421
  C        44.5204813495       18.1179651513        2.6660276195
  C        41.8837344291       17.1653706882        5.2058262252
  C        41.8842103388       17.1571199003        6.6272694397
  C        43.0901672192       17.2463330240        7.3912405147
  C        20.3182553976       17.9077393671        7.3308151372
  C        20.2974578594       17.8801358243        4.5174472711
  C        46.7836044930       17.2294907437       13.8865781992
  C        45.4764668054       17.1191281703       13.1768446080
  C        45.2572591378       16.1212721353       12.2151720069
  C        44.0673225763       16.0928973285       11.4917321745
  C        43.0667263529       17.0588622956       11.7137454577
  C        43.2750592899       18.0245308515       12.7160787252
  C        44.4665373306       18.0596981027       13.4338944676
  C        41.8221579736       17.0850150120       10.9133280678
  C        41.8528002994       17.1137025483        9.4925672401
  C        43.0753237397       17.2234105816        8.7574676549
  C        46.1533246475       26.6371436411        8.7212071747
  C        46.1628316461       26.6562925859       11.5308453870
  C        14.0461629771       17.8320500539       13.7038234496
  C        15.3672584516       17.9067136688       13.0146152548
  C        15.6404958343       18.9203138170       12.0838860538
  C        16.8698706299       18.9570689833       11.4298114598
  C        17.8538754315       17.9794762764       11.6805099140
  C        17.5876714448       16.9954782477       12.6500195209
  C        16.3603466925       16.9580236535       13.3075619740
  C        19.1210445356       17.9524584452       10.9116353483
  C        19.0965680362       17.9239397622        9.4902529751
  C        17.8767439758       17.8139504299        8.7496460151
  C        28.8093067496       14.0871807923        2.3649879736
  C        28.2000795879       12.9168615303        3.0609797648
  C        28.9170472018       12.1959224945        4.0267345220
  C        28.3196426984       11.1228502461        4.6834878070
  C        26.9904047639       10.7479557242        4.4001631913
  C        26.2948824247       11.4517276854        3.4006044913
  C        26.8902181964       12.5244391887        2.7419980430
  C        26.3206944329        9.6688857818        5.1624566298
  C        26.3000824678        9.6983213458        6.5834425677
  C        26.7938200630       10.8158019922        7.3283873287
  C        32.1561113379       21.2730171873        2.1498153243
  C        32.7382646680       22.4446891845        2.8674624593
  C        31.9979358830       23.0964214617        3.8652425553
  C        32.5671805321       24.1368913168        4.5935982933
  C        33.8913767330       24.5480952372        4.3469106623
  C        34.6120819734       23.9142390954        3.3172779650
  C        34.0450989303       22.8713890525        2.5888092821
  C        34.5270910461       25.6163534243        5.1494309713
  C        34.5347039176       25.5771787561        6.5706185094
  C        34.0326698170       24.4574593044        7.3062675090
  C        25.6917226839        8.6191889569        7.3020156115
  C        25.6888503732        8.6148454168        4.4890890008
  C        32.1047600861       21.2322253389       13.8815376046
  C        32.6987151641       22.3800060953       13.1351496583
  C        31.9668426817       23.0359516584       12.1330852788
  C        32.5489196668       24.0634518090       11.3946972012
  C        33.8763728189       24.4656251761       11.6411318886
  C        34.5910883435       23.8225883214       12.6699287572
  C        34.0140591529       22.7890205387       13.4030722020
  C        34.5159646501       25.5475276621       10.8586442212
  C        34.5275631854       25.5426768953        9.4369290113
  C        34.0287028386       24.4414566709        8.6726378489
  C        40.6184231822       17.1212401374        8.7639682462
  C        40.5884514158       17.1052457714       11.5733611079
  C        28.7199183708       14.0986600085       13.7773706653
  C        28.1166112125       12.9478417078       13.0442391032
  C        28.8455826086       12.2623408560       12.0602861356
  C        28.2679655555       11.1980341536       11.3725786774
  C        26.9444801037       10.7938956411       11.6407826871
  C        26.2335566925       11.4670118170       12.6524342658
  C        26.8099379730       12.5301625141       13.3439904818
  C        26.3037462226        9.7011617242       10.8710227810
  C        26.2930276574        9.7152219531        9.4489642418
  C        26.7880244556       10.8248656516        8.6939972913
  C        18.1354849411        3.1811411438        2.3222768976
  C        17.4062907186        4.2784096937        3.0208973018
  C        16.3901486451        4.0001361969        3.9479826542
  C        15.7425065940        5.0401730987        4.6114649559
  C        16.0949280742        6.3838378862        4.3722115744
  C        17.0848154563        6.6532981761        3.4089558951
  C        17.7338197967        5.6158978436        2.7438982521
  C        15.4705877060        7.4915282929        5.1352702881
  C        15.4855795895        7.4906582835        6.5569843114
  C        16.1869734192        6.4969184180        7.3101390154
  C        42.9459469263       31.8596586075        2.0780010620
  C        43.6463779538       30.7719324782        2.8220310694
  C        44.5917606157       31.0932761532        3.8082129080
  C        45.1975021527       30.0877260208        4.5558748319
  C        44.8712023143       28.7346602721        4.3408931298
  C        43.9455487036       28.4203079559        3.3275364453
  C        43.3366823009       29.4254549481        2.5795318564
  C        45.4888080606       27.6553323315        5.1440438752
  C        45.4927340646       27.6807831137        6.5657426928
  C        44.8054787140       28.6887165742        7.3123668919
  C        14.8566229517        8.5631436941        7.2693616336
  C        14.8755834649        8.5634503661        4.4566854146
  C        42.9464666949       31.9617499121       13.8039228542
  C        43.6917889648       30.8855417228       13.0904008606
  C        44.6561306731       31.1914697292       12.1178859142
  C        45.2777065309       30.1718757531       11.4001831391
  C        44.9541926498       28.8215484399       11.6380406771
  C        44.0209827201       28.5238872604       12.6490660249
  C        43.3926717661       29.5406503012       13.3612251944
  C        45.5632294543       27.7241213434       10.8528016214
  C        45.5332551960       27.7172470465        9.4315038786
  C        44.8267416382       28.7073469878        8.6785530558
  C        35.1318441222       26.6370658389        8.7342811373
  C        35.1262852870       26.6046219572       11.5440206269
  C        18.1486737850        3.2471079901       13.7014412873
  C        17.4301844830        4.3439364541       12.9921353477
  C        16.4146407236        4.0526993046       12.0689161007
  C        15.7663448628        5.0833588609       11.3935731970
  C        16.1213799556        6.4285479195       11.6159880859
  C        17.1131760466        6.7119072049       12.5728124201
  C        17.7608402480        5.6829677164       13.2525490697
  C        15.4908261311        7.5242325028       10.8435738408
  C        15.4964978876        7.5074861261        9.4224432029
  C        16.1931617870        6.5057140763        8.6757440002
  H        10.6724514352       12.4653060845       11.8999470891
  H        11.6948507733       10.5505117412       10.6581181536
  H        15.3924460565       11.1697811887       12.7662030377
  H        14.3519914635       13.0725096434       14.0112488633
  H        13.3765804435       11.6313796789        9.1962927574
  H        50.3229195310       22.7479147447       11.9811502464
  H        49.3198957181       24.6224354509       10.6752190565
  H        45.6432101800       24.1625348815       12.8597577663
  H        46.6640660241       22.2914370339       14.1679815795
  H        47.6303690644       23.5760595658        9.2411237004
  H        14.8728230335        8.5886453117       12.6035001169
  H        50.2870652070       22.7020672798        4.0659958862
  H        49.2692460326       24.5749730444        5.3660244546
  H        45.6113506145       24.1104806870        3.1501382755
  H        46.6534462476       22.2551005874        1.8357688574
  H        47.6082535097       23.5519766081        6.8020236753
  H        40.6733622657       17.1588625291        3.4336661314
  H        48.6873241613       14.0951397258       15.7949670169
  H        10.6814295901       12.4661444303        4.0979490995
  H        11.6899881307       10.5242955828        5.3016288258
  H        15.3945497661       11.1604614008        3.2118870042
  H        14.3659353749       13.0887313985        1.9967142035
  H        13.3763501400       11.6224340406        6.7583012736
  H        47.9303334306       14.2187525388        1.7160304346
  H        47.7802718349       14.3749302781       14.4905149404
  H        49.0859832924       18.5533235098        2.8728997302
  H        10.4166589686       14.1342782543        0.0037855895
  H        24.4818881216        3.0334012013       11.9051993598
  H        25.6184207694        4.8928551867       10.6776791226
  H        23.2445966363        7.7575496559       12.8356182336
  H        22.1266665054        5.8885703272       14.0652043304
  H        23.8140552205        5.7941545766        9.2490513071
  H        36.3727043080       32.1862121241       11.9673368616
  H        35.2499847760       30.3584761928       10.6890279960
  H        37.5217446516       27.4398671808       12.8851155454
  H        38.6240385588       29.2803339616       14.1725982729
  H        37.0306540283       29.4509867086        9.2744985872
  H        25.7300258954        8.6196109655       12.6365716727
  H        36.4664224281       32.2571231483        4.1197555310
  H        35.3444591550       30.4478790228        5.4199593094
  H        37.5004634757       27.4948258240        3.1530134302
  H        38.5989334417       29.3163390601        1.8416194581
  H        37.0410565450       29.4784041292        6.8359283410
  H        46.1099144578       26.5879662747        3.3907321294
  H        44.6682101298       35.1162702790       15.8089207652
  H        24.4433620122        3.0405499297        4.0850113441
  H        25.5792337169        4.8804158352        5.3313040667
  H        23.1739054209        7.7687401592        3.2416732901
  H        22.0499189307        5.9171833131        1.9947101624
  H        23.7992403152        5.7929317028        6.8107893282
  H        44.9535520767       34.3901502813        1.7001582523
  H        44.9013610095       34.2066785423       14.4856574846
  H        40.6662862446       33.2096528380        2.8583983204
  H        23.1504198789        1.9584765170        0.0095886412
  H        25.8300163818       19.6328320298       11.8928926250
  H        23.6592988554       19.6794267312       10.6609532988
  H        22.3436647394       16.2294302996       12.8669142837
  H        24.5169586431       16.2010391675       14.0982979134
  H        23.7231373720       17.6471904925        9.2444288315
  H        35.1319086898       15.4498685217       11.9899721244
  H        37.2526626312       15.4039257028       10.6684731598
  H        38.6857999355       18.8050920958       12.8765249655
  H        36.5565304267       18.8400778374       14.1904158623
  H        37.2246977394       17.3914785189        9.2343583814
  H        20.3599777383       17.9816943793       12.6664982722
  H        35.2304236261       15.4533158492        4.0460594826
  H        37.3644264683       15.4070804205        5.3508824086
  H        38.7347218822       18.8752120017        3.2078800228
  H        36.5987595791       18.8988471393        1.9000035659
  H        37.2510851852       17.4089376316        6.7899442435
  H        35.1042793884       26.7208908419        3.4043795818
  H        28.5094415516       21.0824288662       15.9876149364
  H        25.7682708727       19.5964690065        4.2048992870
  H        23.5728261778       19.6633701450        5.3951687094
  H        22.3031630393       16.1663064604        3.2372263585
  H        24.4965787641       16.1270034653        2.0341898851
  H        23.7016231993       17.6260687958        6.8047319068
  H        28.9679907624       21.7214318152        1.7944496822
  H        29.1518127306       21.7505169923       14.6243634967
  H        32.1703215904       18.5559937085        2.9705576018
  H        27.3969522581       19.0694513627        0.0979486925
  H        14.8510007300       19.6428908340        4.1515093461
  H        17.0129116458       19.6838718932        5.3949872551
  H        18.3022685749       16.1822267404        3.2565042752
  H        16.1364570902       16.1565235873        2.0126088392
  H        16.9217259755       17.6876774520        6.8567566437
  H        46.0961203884       15.4586032425        4.0868630978
  H        43.9761334927       15.4221644146        5.4056727565
  H        42.5764074369       18.8578226663        3.2275282283
  H        44.6963489322       18.8684523775        1.8989822596
  H        44.0337377470       17.3648008426        6.8661336249
  H        20.2920050528       17.9108027687        3.4293217170
  H        46.0358166579       15.3835482441       12.0346580945
  H        43.9014481770       15.3199216510       10.7444536447
  H        42.5075174689       18.7747481138       12.8945150472
  H        44.6494080056       18.8255486262       14.1836572937
  H        44.0074409996       17.3230313890        9.3060144790
  H        46.1999877078       26.6830744432       12.6182756107
  H        52.7415327006       21.0628254041        0.1998577109
  H        14.8795964551       19.6730092381       11.8896364978
  H        17.0808371190       19.7458118531       10.7108679531
  H        18.3389549760       16.2346745977       12.8516447327
  H        16.1396732415       16.1850763793       14.0396871497
  H        16.9431796245       17.7070451642        9.2937799006
  H        52.3234865469       21.6736657129       14.2888180271
  H        52.0139462721       21.7025912693        1.5008743668
  H        49.0680725968       18.6076906037       13.1986647869
  H        13.2482035346       19.0157141085       15.9725236201
  H        29.9380587563       12.4956574131        4.2516496060
  H        28.8772888314       10.5631605002        5.4312166304
  H        25.2673505015       11.1740054272        3.1749324694
  H        26.3498811692       13.0892660721        1.9863402053
  H        27.1524080522       11.6874762922        6.7890089149
  H        30.9839261420       22.7592188287        4.0679574392
  H        31.9887732308       24.6431796698        5.3632876226
  H        35.6369356892       24.2233036413        3.1222440067
  H        34.6063738843       22.3545938107        1.8138369126
  H        33.6718093981       23.5923475485        6.7575339695
  H        25.7230456595        8.5932691403        3.4012420250
  H        30.9428634721       22.7242242228       11.9405786306
  H        31.9738350462       24.5739230351       10.6252018978
  H        35.6184430419       24.1228055056       12.8656666980
  H        34.5702842026       22.2708992522       14.1808409092
  H        33.6651860429       23.5634756681        9.1986589773
  H        40.5770361090       17.0597699871       12.6607297964
  H        32.5232650811       14.1406132887        0.2601803768
  H        29.8667463448       12.5727727270       11.8512713694
  H        28.8416679074       10.6636730031       10.6186128953
  H        25.2093095374       11.1686730222       12.8665473845
  H        26.2574406183       13.0649310173       14.1129804503
  H        27.1414184470       11.7041565658        9.2243302854
  H        33.2903067363       14.1902781793       14.4199200214
  H        33.4130476202       14.4137532325        1.6074306030
  H        32.1765829303       18.6034882825       13.2327635572
  H        30.2233375645       14.1889030665        0.0624915556
  H        16.1176914520        2.9636763663        4.1340456309
  H        14.9527301631        4.8208927540        5.3267942871
  H        17.3677950647        7.6861100173        3.2162903354
  H        18.5162802271        5.8185218709        2.0164942473
  H        16.7535471989        5.7395975908        6.7766285404
  H        44.8279113321       32.1403840077        3.9824485117
  H        45.9372686222       30.3415185612        5.3119066431
  H        43.6829992372       27.3782209999        3.1573169843
  H        42.6001528156       29.1901800105        1.8147629581
  H        44.2301200627       29.4364590900        6.7740273256
  H        14.8521918895        8.5469146145        3.3684544602
  H        44.8994737086       32.2341752360       11.9263007379
  H        46.0244449367       30.4131481723       10.6467915733
  H        43.7643273347       27.4841313027       12.8408832451
  H        42.6464240347       29.3179118180       14.1199378443
  H        44.2682125851       29.4702092790        9.2131540170
  H        35.0850482975       26.6152603153       12.6315378569
  H        36.6050467089       35.1342759619        0.1856493269
  H        16.1432978235        3.0131483691       11.8994603768
  H        14.9737800994        4.8565767468       10.6837377655
  H        17.3971064453        7.7473275882       12.7493137786
  H        18.5440965053        5.8934193875       13.9769057662
  H        16.7645841649        5.7554643919        9.2141806472
  H        36.2785954101       34.4827233053       14.2679450946
  H        36.3808471100       34.2093675132        1.5046082731
  H        40.5805841751       33.2031215357       13.1483321046
  H        17.4708031305        1.9478648496       15.9689364125
  H        28.8702919516       18.9714232906        4.3112586481
  H        29.7140622500       19.8908980556       11.6668131738
  H        32.2222693608       16.2062860543       10.6869064753
  H        31.3738990445       15.4463165248        4.4593474617
  H        28.2121396723       17.3030057723        6.8456722029
  H        31.7948932926       13.7337963705        8.1898234158
  H        31.6443961151       20.2257469121        9.6450005293
  H        33.4751097963       16.8413179766        9.9330985160
  H        29.1101212913       16.7087566414        9.4437602571
  H        18.8533981238        0.8689294710        4.3405716183
  H        40.5278831206       35.2290579799       11.9468435491
  H        42.3248361225       34.4195794555       11.5850439662
  H        22.0875710657        0.6922286559        4.3567672510
  H        11.5969269775       18.7130012423        4.3878574726
  H        52.2652380607       18.4315378448       11.6720634277
  H        49.2553444498       16.4769564417       11.5791394889
  H        10.1506997234       15.7982063232        4.2975550009
  H        50.8506290951       17.6925793276       11.9489945398
  H        10.0465403642       17.3945908046        4.0569566907
  H        20.2145065731        0.0022124769        4.0471323717
  H        39.1837220181       36.1244890332       11.6811950002
  H        32.2011699241       18.5319669931        6.6743876275
 Ni        30.8169143418       17.9870988808       10.9069001053
 Ni        31.0730363611       16.3260524714        7.8302508079
 Ni        30.0560486296       19.0627736958        7.9978029021
 Ni        30.3476575554       17.2873091857        5.1654024702
  O        10.6500093573       14.3651612556       13.4807674238
  O        12.6131854376       14.6575289660       14.5788215179
  O        49.1480317416       16.8458148356       15.9845103097
  O        50.3503664675       20.9356636038       13.6428155644
  O        48.3485942302       20.5933169312       14.6607087285
  O        11.0519769676       17.0537344583       14.4957089529
  O        50.3210619157       20.8816027771        2.4119746795
  O        48.3467925077       20.5867220095        1.3322136410
  O        49.5443483003       18.2483974621        2.0732222257
  O        12.3593402383       18.6247284263        0.0048086191
  O        48.6932458675       14.1486353084       14.7461883755
  O         8.2099459328       14.2104149384        1.3276156513
  O        10.7354065432       14.5067761484        2.6694201276
  O        12.5718169385       14.5828135830        1.3335876971
  O        22.8451290632        2.0443291735       13.4817386279
  O        21.6060864096        3.5928755227       14.5839729391
  O        42.0584417294       34.1376896217       15.9738218603
  O        37.9818816044       33.1386355756       13.5677093241
  O        39.2186498946       31.5767322100       14.6621902054
  O        20.3085874878        1.0400103294       14.4970184768
  O        38.0253631045       33.1877190001        2.4196860933
  O        39.2190981515       31.5840836981        1.3319796865
  O        40.6524730011       33.7696728013        2.0653327142
  O        18.2553897017        1.3765702220        0.0018357497
  O        44.6222053832       35.1005677882       14.7536729992
  O        24.2054602300        0.0000011983        1.3258642809
  O        22.7531712383        2.0579318172        2.5888637242
  O        21.6245922163        3.5961163055        1.3477836030
  O        27.4931709855       18.7524527814       13.4983308874
  O        26.7674857202       16.9299074638       14.6524729502
  O        30.6703502289       19.4066809804        0.0779873348
  O        33.5456306109       16.3305452134       13.6438599739
  O        34.2784243754       18.1809098455       14.7358769691
  O        29.5760482398       17.0712395150       14.5712432467
  O        33.6365502159       16.3264680020        2.4031688878
  O        34.3084317157       18.2537134875        1.4077075111
  O        31.7078906199       18.3126644157        2.1527981023
  O        30.3235285195       15.1548911534        0.0735224944
  O        28.5538663570       21.0344020560       14.9049608305
  O        28.5108437954       20.9515727810        1.4161957269
  O        27.4947773385       18.6117458805        2.7372437019
  O        26.6944668271       16.9316905968        1.4206159632
  O        13.1493230227       18.6927106935        2.5925942655
  O        13.9194273997       16.9161960785        1.4101443708
  O        50.5966868445       19.3502786881        0.0254279013
  O        47.6835076908       16.3270053329        2.4223998373
  O        46.9525829220       18.1762520187        1.3289547677
  O        11.0702061973       17.0153644220        1.4946522625
  O        47.6748387378       16.3356753824       13.6478305918
  O        46.9260328679       18.2359775791       14.6590454970
  O        49.5688668888       18.3176733776       13.9770923984
  O        10.3188026899       15.1000769075        0.0021912282
  O        52.6708032014       21.0278505372        1.2469140660
  O        12.1468703469       20.8912433803       14.6681935149
  O        13.1081503667       18.6136204851       13.3205645099
  O        13.9570767545       16.9870908204       14.6604036282
  O        29.9992206829       14.4336087045        2.6671503099
  O        28.0773022133       14.6594917572        1.4856848750
  O        32.1436274127       16.8597834021        0.0712944542
  O        30.9552440835       20.9531610446        2.4216048630
  O        32.9220589946       20.6557074641        1.3306736036
  O        29.5749019245       17.0740010769        1.5783695849
  O        30.8751469914       20.9534745205       13.6621107285
  O        32.8807337827       20.5845477044       14.6604117199
  O        31.6810118157       18.2572693460       13.9908216080
  O        28.2847543604       18.6758939002        0.0916748796
  O        32.5002529511       14.2084596511        1.3303677718
  O        32.4014603133       14.2178308773       14.8108731683
  O        29.8756558971       14.5103944650       13.4057780571
  O        28.0432619323       14.5857769790       14.7439365342
  O        17.8892006701        1.9667127389        2.6679135715
  O        18.9562681664        3.5271939236        1.4130755224
  O        39.1686621352       34.1390385261        0.0022813860
  O        43.2802926486       33.0589832638        2.3368668686
  O        42.0346261069       31.5064236777        1.2467700221
  O        20.3179168771        1.0371015749        1.4849768208
  O        43.2761162119       33.1825968201       13.5697344610
  O        42.0053291668       31.5840752816       14.5778737937
  O        40.5791183558       33.7752149913       13.9308651031
  O        22.3675347890        1.3849002238        0.0029797795
  O        36.6726945059       35.0999725716        1.2382655729
  O        16.4455975322        0.0644425359       14.6631548204
  O        17.9365090859        2.0434319766       13.3212871176
  O        18.9190968797        3.5931857994       14.6607959618
  O        29.7888668650       19.0439166050       12.1438480358
  O        29.7910963345       18.8937524315        3.9985309825
  O        31.2169551439       16.2780935781       12.0029624909
  O        31.4791221249       16.2689151047        3.9347897021
  O        32.5329753841       16.6335068836        9.8205071025
  O        29.9139602967       17.2172573407        9.2482805868
  O        30.4529283205       15.6773423823        6.2532888174
  O        31.3435582569       18.1032687842        6.8284547362
  O        30.8821901998       19.6277690410        9.6680514261
  O        28.4634961259       17.9434273084        6.1565118156
  O        39.4567928240       35.2438659222       11.9968473206
  O        19.1412112335        0.0044817388        3.9956841171
  O        41.9696628202       35.1727975409       12.0820673606
  O        21.6913326710       -0.0692799594        3.9010797001
  O        51.3653068947       18.6143460445       12.0002257369
  O        10.7512392673       18.7470882446        3.9100354853
  O        50.0796090678       16.4126685618       12.0865901287
  O         9.5246556117       16.4830651748        3.9963073039
 Zr         9.2984663501       16.0527795164       14.1774302812
 Zr        49.8378721577       16.0065600055        1.7512599337
 Zr        22.0734420511        0.0308744273       14.1837375921
 Zr        42.4610241071       35.1542918741        1.8062354268
 Zr        29.5911760025       19.1094489272       14.3043477537
 Zr        29.5960692876       19.1714520819        1.8919043253
 Zr        11.0395737484       19.0517537895        1.8330268309
 Zr        11.0453372672       19.1547200529       14.2454807838
 Zr        31.3610680369       16.0908053221        1.8496026062
 Zr        31.3922579276       16.0288887617       14.2799021123
 Zr        18.6013250603       -0.0003791535        1.7682498529
 Zr        18.5066924491       -0.0069377641       14.2088069505
 Zr        12.3039685877       16.3235711633       15.9852800647
 Zr        48.6184671898       18.8335384910        0.0148598804
 Zr        20.3158507772        2.4745094253       15.9852992096
 Zr        40.6439446034       32.6879942236       15.9733130231
 Zr        28.3414328558       16.3487840624        0.0928515818
 Zr        32.6302803312       18.8540921370        0.0777273929
  O        30.9167898524       14.1450958856        8.2449933279
  H        30.6293323446       14.2981880409        7.2880944228
  H        30.4993352195       15.6352912156       11.8343497751
  H        29.3929651143       20.1743933908        7.1910173597
  H        28.5703967412       18.8475036649        6.5991018269
