     577
 i =      217, E =     -4796.0860054789
  C        11.8587891083       14.0537588968       13.7364448553
  C        12.4564132948       12.8909159687       13.0179088239
  C        11.7044900815       12.1714359060       12.0768742120
  C        12.2808813142       11.1092122376       11.3845477136
  C        13.6216821164       10.7399839151       11.6117754540
  C        14.3552103082       11.4442679216       12.5844181430
  C        13.7822995863       12.5092954964       13.2758572917
  C        14.2611177368        9.6491583155       10.8384854532
  C        14.2564136955        9.6569635520        9.4167878649
  C        13.7433570566       10.7591544766        8.6629083794
  C        49.1268794671       21.2330953584       13.8745522326
  C        48.5500708681       22.4011210536       13.1474879648
  C        49.3001576409       23.0684994788       12.1665932917
  C        48.7332349768       24.1076599183       11.4333977005
  C        47.4026660043       24.5092131573       11.6619414899
  C        46.6716355489       23.8602597648       12.6753381325
  C        47.2340958372       22.8153577256       13.4046984711
  C        46.7723953103       25.5868973374       10.8646579322
  C        46.7614724205       25.5573807555        9.4428871675
  C        47.2615512395       24.4423589880        8.6993850914
  C        14.8601753831        8.5705004573        8.7035643158
  C        14.8917770319        8.5971876863       11.5151785014
  C        49.1132269158       21.2033025732        2.1503896693
  C        48.5277955254       22.3647393854        2.8775710253
  C        49.2671775773       23.0255946629        3.8702605904
  C        48.6909100827       24.0601797423        4.6017494882
  C        47.3604315626       24.4568126719        4.3637251975
  C        46.6398322279       23.8117466539        3.3404448400
  C        47.2133428342       22.7758205801        2.6086338490
  C        46.7220574064       25.5318475193        5.1547491296
  C        46.7337691047       25.5282425735        6.5764570690
  C        47.2493269616       24.4290847186        7.3328338655
  C        40.6194082073       17.1230991104        7.3087727281
  C        40.6326660124       17.1157908491        4.4990818804
  C        11.8830385461       14.0867599461        2.2906264363
  C        12.4725046405       12.9110679849        2.9951077869
  C        11.7147543764       12.1772804263        3.9205413963
  C        12.2813713613       11.0948138106        4.5889406979
  C        13.6204380579       10.7216841087        4.3576735764
  C        14.3587857605       11.4379876139        3.3977417285
  C        13.7933156233       12.5191894238        2.7250988604
  C        14.2539277525        9.6247528006        5.1279880716
  C        14.2526215426        9.6446201823        6.5498273255
  C        13.7428379859       10.7536323776        7.2968638281
  C        22.5127674716        3.2452102974       13.7466008913
  C        23.2296860252        4.3491572923       13.0442458910
  C        24.2256844776        4.0646261246       12.0981239895
  C        24.8574627660        5.1005667099       11.4144770824
  C        24.5098532257        6.4446344644       11.6560972793
  C        23.5409061807        6.7207091038       12.6382838184
  C        22.9044623969        5.6863382995       13.3204487487
  C        25.1229878899        7.5479728937       10.8798079411
  C        25.0999996789        7.5403015504        9.4577827799
  C        24.3944182693        6.5443481290        8.7103753663
  C        38.3065920039       31.9314825725       13.8422624503
  C        37.5862032840       30.8421576465       13.1269955140
  C        36.6284802086       31.1446760608       12.1474637330
  C        36.0194496490       30.1229849227       11.4251807276
  C        36.3546922086       28.7757180921       11.6621796865
  C        37.2846898010       28.4806250676       12.6763595980
  C        37.8975516492       29.5008382635       13.3975803502
  C        35.7519354368       27.6840085336       10.8684811645
  C        35.7639388738       27.7035873602        9.4477144241
  C        36.4676044261       28.7032319870        8.7049027251
  C        25.7299155751        8.6069528361        8.7382745377
  C        25.7221745678        8.6222079944       11.5502064583
  C        38.3246704591       31.9624705693        2.1587305660
  C        37.5912697898       30.8932956471        2.8950886318
  C        36.6681637764       31.2101982062        3.9037007450
  C        36.0463167202       30.1974781218        4.6310971848
  C        36.3321937529       28.8418114340        4.3733769779
  C        37.2310114295       28.5350251149        3.3333415598
  C        37.8557278457       29.5445570411        2.6072453442
  C        35.7160777949       27.7489732348        5.1608776086
  C        35.7452208490       27.7372090499        6.5826244014
  C        36.4599463664       28.7186253929        7.3386038204
  C        46.1357141350       26.6208545930        7.2865958111
  C        46.0880425435       26.5801663672        4.4787002470
  C        22.4632752269        3.2560445416        2.2617981866
  C        23.1638014177        4.3638101181        2.9817791375
  C        24.1705595303        4.0746502941        3.9167286200
  C        24.8053874181        5.1025736253        4.6100001119
  C        24.4539699645        6.4496982986        4.3912253918
  C        23.4701075820        6.7322673132        3.4247802478
  C        22.8307491921        5.7044186301        2.7318268673
  C        25.0911066905        7.5449407133        5.1652894450
  C        25.0844473633        7.5377948278        6.5881600039
  C        24.3850310245        6.5442180912        7.3437175714
  C        26.6291323751       17.8641303400       13.7752462143
  C        25.3220080014       17.9063246335       13.0507030216
  C        25.0786748466       18.8776608761       12.0667386595
  C        23.8640754700       18.8974442897       11.3832594532
  C        22.8579513521       17.9481343492       11.6577697560
  C        23.1000560039       16.9992156059       12.6693645834
  C        24.3150022953       16.9748488409       13.3526169141
  C        21.5839809221       17.9289856232       10.8944220902
  C        21.5825333056       17.8948944081        9.4716728901
  C        22.7862353136       17.7567089718        8.7107246835
  C        34.3906078768       17.2616974720       13.8355311086
  C        35.6890351737       17.1991738263       13.1035373608
  C        35.8800606286       16.2604594982       12.0775967871
  C        37.0759766214       16.2322779345       11.3661183521
  C        38.1094344088       17.1464516100       11.6523353735
  C        37.9185524479       18.0647160239       12.7026074603
  C        36.7237395472       18.0935668110       13.4177561505
  C        39.3685987141       17.1509567164       10.8741001781
  C        39.3648417408       17.1719241968        9.4519203442
  C        38.1605025452       17.3192343789        8.6937621308
  C        20.3354253860       17.9148773615        8.7636724477
  C        20.3585112593       17.9386279822       11.5767109919
  C        34.4383109645       17.2410318208        2.1908668832
  C        35.7400224286       17.1430581589        2.9108720359
  C        35.9363637170       16.1877035443        3.9191977642
  C        37.1273096612       16.1642366346        4.6408512173
  C        38.1518606058       17.0938819353        4.3736416037
  C        37.9616303675       18.0199204202        3.3306716283
  C        36.7697086447       18.0497942405        2.6131908065
  C        39.4017223789       17.1164190889        5.1654584717
  C        39.3814977661       17.1516709548        6.5864285815
  C        38.1677549261       17.3053105027        7.3276162652
  C        35.1134908760       26.6619088195        7.2920152549
  C        35.1030078527       26.6880413849        4.4833210890
  C        26.5902932382       17.7951273938        2.3642182844
  C        25.2707014382       17.8510064148        3.0577696618
  C        25.0115991743       18.8473017750        4.0107804520
  C        23.7882168988       18.8795543643        4.6739694892
  C        22.7963556577       17.9134487908        4.4105775219
  C        23.0494415263       16.9447089564        3.4224029723
  C        24.2719604973       16.9124286104        2.7548628894
  C        21.5315759784       17.8933939597        5.1815855539
  C        21.5556553780       17.8753680525        6.6033164767
  C        22.7732993419       17.7472503275        7.3445090790
  C        14.0476917782       17.8286758167        2.2945163182
  C        15.3520840064       17.8846835413        3.0198821852
  C        15.6081549268       18.8836263363        3.9723741059
  C        16.8171973330       18.9024694179        4.6654611790
  C        17.8054866390       17.9253495527        4.4288035050
  C        17.5542096534       16.9512264929        3.4438114957
  C        16.3446423437       16.9275299552        2.7524237218
  C        19.0749471051       17.9053160457        5.1977648687
  C        19.0742123997       17.8978658630        6.6205125643
  C        17.8676810671       17.7993959071        7.3825670547
  C        46.8032659823       17.2162245362        2.1612828457
  C        45.5095709838       17.1473403587        2.9008975291
  C        45.3032994833       16.1655827918        3.8824378937
  C        44.1190138566       16.1408184203        4.6143841700
  C        43.1108534753       17.0977917029        4.3870053149
  C        43.3136012548       18.0579160235        3.3771887369
  C        44.4986778976       18.0866195876        2.6461848921
  C        41.8576248482       17.1084509607        5.1763905375
  C        41.8653349634       17.1200595685        6.5986233706
  C        43.0752436493       17.2116886751        7.3563931243
  C        20.3212806467       17.9044827277        7.3286262649
  C        20.2991879969       17.8878926768        4.5151781930
  C        46.7830139073       17.2329708391       13.8805555309
  C        45.4798380592       17.1307914247       13.1605384460
  C        45.2579563362       16.1321881860       12.1997516739
  C        44.0698788420       16.1073119565       11.4722924484
  C        43.0720394657       17.0783797631       11.6866345300
  C        43.2849381931       18.0477765701       12.6849686524
  C        44.4738121900       18.0786489506       13.4079430008
  C        41.8243960392       17.1039320998       10.8888778776
  C        41.8483925890       17.1171249922        9.4670616179
  C        43.0672523274       17.2068626070        8.7234335961
  C        46.1533975899       26.6372352654        8.7211462643
  C        46.1623204999       26.6559399218       11.5307869433
  C        14.0471329582       17.8321358497       13.7033943120
  C        15.3690538737       17.9066440381       13.0141557209
  C        15.6426219141       18.9185029414       12.0814744482
  C        16.8723642132       18.9548896209       11.4275661657
  C        17.8575805595       17.9786991108       11.6798172203
  C        17.5910108408       16.9965868202       12.6513378542
  C        16.3632816524       16.9594459010       13.3086641847
  C        19.1253457208       17.9508995243       10.9105815899
  C        19.1005642190       17.9196848685        9.4890017687
  C        17.8806448892       17.8089412278        8.7486786454
  C        28.8166454938       14.0924460672        2.3714716713
  C        28.2155429094       12.9175283125        3.0692074217
  C        28.9556381276       12.1537406962        3.9839856674
  C        28.3616839815       11.0781530663        4.6411306307
  C        27.0140390227       10.7389259619        4.4036267789
  C        26.2942742863       11.4836973872        3.4528157220
  C        26.8851608123       12.5609992323        2.7973495148
  C        26.3504726247        9.6537449810        5.1643994867
  C        26.3416731105        9.6769902034        6.5850568201
  C        26.8501184319       10.7878294858        7.3302503256
  C        32.1320784270       21.2397378561        2.1934775576
  C        32.6997905452       22.4220608492        2.9034511291
  C        31.9511267273       23.1009207536        3.8771667431
  C        32.5176041173       24.1520363042        4.5926133578
  C        33.8474185096       24.5500015993        4.3549599550
  C        34.5752472976       23.8935849540        3.3448659676
  C        34.0116283399       22.8398679533        2.6308334743
  C        34.4851407327       25.6235702434        5.1489756164
  C        34.4973089201       25.5880353263        6.5702111209
  C        33.9872623375       24.4753967110        7.3116628780
  C        25.7268242853        8.6016191114        7.3035054533
  C        25.7093477876        8.6063633133        4.4899248111
  C        32.1630586570       21.2733338475       13.9587905918
  C        32.7494613632       22.4105342649       13.1923754739
  C        31.9920568615       23.0832520083       12.2211521834
  C        32.5658074860       24.0971716640       11.4578621459
  C        33.9084552220       24.4730061782       11.6539806179
  C        34.6513691162       23.8135495783       12.6519370668
  C        34.0840163861       22.7890517958       13.4047968978
  C        34.5359061602       25.5523309251       10.8573678275
  C        34.5221141304       25.5522107640        9.4358149651
  C        33.9980823329       24.4582866231        8.6782419909
  C        40.6106146799       17.1275565721        8.7435431831
  C        40.5928124986       17.1339184539       11.5536450433
  C        28.7247795541       14.0992469573       13.7779831683
  C        28.1295031804       12.9405069143       13.0492689039
  C        28.8736606667       12.2417917853       12.0860588170
  C        28.3039380002       11.1732287698       11.3980545342
  C        26.9735377317       10.7783449447       11.6449194615
  C        26.2474006138       11.4644421458       12.6365923640
  C        26.8161209312       12.5313981357       13.3291977469
  C        26.3390121584        9.6827000804       10.8731957464
  C        26.3358204014        9.6934584762        9.4511179540
  C        26.8436542220       10.7976306395        8.6960142213
  C        18.1352827178        3.1809784564        2.3222211686
  C        17.4058569795        4.2781703433        3.0206229448
  C        16.3905830657        3.9997525148        3.9486482432
  C        15.7428322655        5.0396885485        4.6121709319
  C        16.0942132582        6.3835073959        4.3720941071
  C        17.0829699851        6.6530733702        3.4076606241
  C        17.7320727404        5.6157755258        2.7425606495
  C        15.4699980777        7.4911906446        5.1352200654
  C        15.4852049452        7.4903841639        6.5569438454
  C        16.1865893827        6.4966829535        7.3101658785
  C        42.9459330236       31.8594304128        2.0781312818
  C        43.6463333145       30.7718735574        2.8220061975
  C        44.5918555095       31.0931925578        3.8081115499
  C        45.1975787040       30.0876347961        4.5557166161
  C        44.8712154729       28.7345484751        4.3407993391
  C        43.9454004039       28.4202427050        3.3275657585
  C        43.3365135185       29.4253780134        2.5795877791
  C        45.4888145107       27.6552716589        5.1439878112
  C        45.4929423925       27.6809328091        6.5656726688
  C        44.8056779667       28.6888627086        7.3122898753
  C        14.8564201510        8.5629674499        7.2693382828
  C        14.8749622475        8.5631564629        4.4566677239
  C        42.9463801614       31.9613357347       13.8039540007
  C        43.6915263938       30.8852848518       13.0904455643
  C        44.6559278229       31.1911937216       12.1179348549
  C        45.2774365745       30.1716099963       11.4002273794
  C        44.9538633419       28.8212480353       11.6380061289
  C        44.0205607570       28.5236058745       12.6489737105
  C        43.3922992657       29.5403624479       13.3611601766
  C        45.5629419586       27.7239019756       10.8527407079
  C        45.5333139847       27.7173225727        9.4314415287
  C        44.8268507299       28.7074461406        8.6784776389
  C        35.1248090571       26.6435142515        8.7262260565
  C        35.1597675493       26.6059111867       11.5347517466
  C        18.1485557530        3.2470699956       13.7015500292
  C        17.4298429570        4.3438799078       12.9925141533
  C        16.4149898379        4.0525325476       12.0685409602
  C        15.7666288616        5.0831152867       11.3931516232
  C        16.1208516073        6.4284406272       11.6161706402
  C        17.1117236118        6.7118876530       12.5739675226
  C        17.7594325367        5.6830263274       13.2537711594
  C        15.4904289949        7.5241009112       10.8436392386
  C        15.4962309280        7.5073288668        9.4224988672
  C        16.1928156861        6.5055213035        8.6757739923
  H        10.6721774896       12.4651970709       11.9003158561
  H        11.6944646363       10.5503020665       10.6584423126
  H        15.3925392678       11.1703615389       12.7654797146
  H        14.3520689638       13.0732437661       14.0105066471
  H        13.3765097858       11.6313264886        9.1962635738
  H        50.3228967066       22.7485038545       11.9819225579
  H        49.3197890119       24.6229652492       10.6759001736
  H        45.6420975344       24.1609349615       12.8584091675
  H        46.6630810027       22.2900529620       14.1667467151
  H        47.6302006399       23.5760310204        9.2410724317
  H        14.8721857180        8.5886226891       12.6034878091
  H        50.2872858312       22.7028200697        4.0649948334
  H        49.2694488719       24.5757313728        5.3650789614
  H        45.6103435813       24.1088382528        3.1516047914
  H        46.6524104612       22.2535004514        1.8372573998
  H        47.6082474140       23.5520329376        6.8019199688
  H        40.6380823948       17.0689890935        3.4117424151
  H        48.6871545470       14.0954136425       15.7949314114
  H        10.6810869800       12.4659537453        4.0974429189
  H        11.6894416571       10.5239606165        5.3011550542
  H        15.3945329847       11.1608125841        3.2125120592
  H        14.3659690800       13.0892809874        1.9973730064
  H        13.3762067922       11.6222998215        6.7581707873
  H        47.9300950551       14.2198979694        1.7156990955
  H        47.7801153324       14.3753439513       14.4904016583
  H        49.0833385452       18.5520752644        2.8721361137
  H        10.4161098596       14.1344384510        0.0037797492
  H        24.4829168426        3.0247976915       11.9089046598
  H        25.6299882563        4.8778591518       10.6816291079
  H        23.2633175195        7.7548455802       12.8316356817
  H        22.1347482762        5.8916398886       14.0605183511
  H        23.8286633701        5.7904343900        9.2500262003
  H        36.3861343413       32.1872256154       11.9556418504
  H        35.2745423434       30.3581982209       10.6682364257
  H        37.5500241171       27.4423040259       12.8641282574
  H        38.6409519329       29.2835666421       14.1607541220
  H        37.0461369509       29.4461281940        9.2463331829
  H        25.7525117321        8.6074065664       12.6382228462
  H        36.4598649458       32.2564608478        4.1155838175
  H        35.3267804600       30.4493095121        5.4070501152
  H        37.4630132462       27.4923066257        3.1267330580
  H        38.5729433801       29.3117304314        1.8238631655
  H        37.0339627771       29.4724925042        6.8076839864
  H        46.1094036503       26.5874829363        3.3906640949
  H        44.6679257380       35.1159352688       15.8088489013
  H        24.4460513670        3.0354932238        4.0819324518
  H        25.5890188341        4.8705603687        5.3281272250
  H        23.1863685349        7.7675560244        3.2467031237
  H        22.0554210765        5.9203188315        2.0002869937
  H        23.8115185280        5.7908043248        6.8115572280
  H        44.9524962108       34.3892504078        1.6996006543
  H        44.9002883748       34.2062174853       14.4855732063
  H        40.6648694574       33.2084233909        2.8579139956
  H        23.1509024612        1.9573939827        0.0097706637
  H        25.8557462360       19.6074412556       11.8494869652
  H        23.6815404428       19.6574501486       10.6265517844
  H        22.3363255618       16.2566192277       12.8913781339
  H        24.5104319580       16.2288015766       14.1193076587
  H        23.7270951565       17.6292810640        9.2381614906
  H        35.0752939017       15.5668060196       11.8446150865
  H        37.2238488900       15.4944546647       10.5807851491
  H        38.7063639093       18.7803877704       12.9285612319
  H        36.5614863537       18.8163876869       14.2139957902
  H        37.2246576177       17.4750904408        9.2223954382
  H        20.3656956382       17.9883171562       12.6641979818
  H        35.1369213595       15.4832957025        4.1369755537
  H        37.2764610850       15.4223429371        5.4221953701
  H        38.7451549562       18.7441236474        3.1175308019
  H        36.6031720919       18.7852210358        1.8298771818
  H        37.2373942780       17.4480323291        6.7853433394
  H        35.0620470126       26.7165122021        3.3960794953
  H        28.5021697975       21.0779794929       15.9781160298
  H        25.7822332464       19.5876941024        4.2138184661
  H        23.5874857219       19.6557209591        5.4092565657
  H        22.2915783127       16.1928714995        3.2119160019
  H        24.4827464010       16.1527134838        2.0060831500
  H        23.7042361446       17.6116265505        6.8019455356
  H        28.9670113466       21.7245158966        1.7901480526
  H        29.1668349718       21.7495427083       14.6407226975
  H        32.0796574321       18.5095349962        3.0069044531
  H        27.3898186986       19.0635987658        0.1033012444
  H        14.8492161284       19.6412712151        4.1544190908
  H        17.0112673354       19.6835832536        5.3974024604
  H        18.3064301371       16.1890046978        3.2510700159
  H        16.1401199693       16.1616347693        2.0080800741
  H        16.9246698490       17.6844406084        6.8560590209
  H        46.0886060698       15.4360017541        4.0657105630
  H        43.9608131595       15.3725525943        5.3680866201
  H        42.5432081685       18.8048025128        3.1969337454
  H        44.6714382807       18.8428904441        1.8840136173
  H        44.0175005249       17.3157007183        6.8260315806
  H        20.2929245576       17.9241224927        3.4272170585
  H        46.0322091939       15.3886358676       12.0244501759
  H        43.9027597340       15.3309973153       10.7287435058
  H        42.5214206388       18.8033453964       12.8581575319
  H        44.6569199638       18.8464363167       14.1557003692
  H        44.0035246033       17.3058383752        9.2651341022
  H        46.1991006766       26.6823947247       12.6182366669
  H        52.7413917369       21.0627410714        0.1998258806
  H        14.8815801205       19.6705782993       11.8852620900
  H        17.0825115052       19.7426319918       10.7072692180
  H        18.3425453454       16.2365674231       12.8550280315
  H        16.1433355885       16.1875704429       14.0421662208
  H        16.9472785115       17.7013824744        9.2930579163
  H        52.3232674555       21.6734809958       14.2887713516
  H        52.0136274682       21.7023820525        1.5007839821
  H        49.0677107083       18.6076386322       13.1986324934
  H        13.2480304231       19.0158520200       15.9722850965
  H        29.9971302309       12.4149816053        4.1587775473
  H        28.9362297091       10.4835748014        5.3483014521
  H        25.2525588649       11.2331808289        3.2631470584
  H        26.3262832231       13.1570270022        2.0800694620
  H        27.2148232215       11.6555011258        6.7884451054
  H        30.9280684802       22.7863057254        4.0694224837
  H        31.9330677759       24.6766650023        5.3452083118
  H        35.6038711701       24.1933901274        3.1554547776
  H        34.5789546002       22.3070713445        1.8714893641
  H        33.6099019180       23.6138497765        6.7685281468
  H        25.7348151393        8.5904812449        3.4017380643
  H        30.9545472594       22.7957537007       12.0678684110
  H        31.9721582440       24.6169387183       10.7089988409
  H        35.6914058417       24.0932177834       12.8066867965
  H        34.6622814550       22.2550748773       14.1551601436
  H        33.6279205640       23.5847362953        9.2078131341
  H        40.5857741340       17.0913565750       12.6411775468
  H        32.4971634625       14.1771545137        0.2652372394
  H        29.9005455995       12.5467552291       11.8974586533
  H        28.8885763034       10.6258565006       10.6619357503
  H        25.2176836733       11.1733599584       12.8337949122
  H        26.2516795513       13.0764852872       14.0821456798
  H        27.2031483556       11.6734357716        9.2282418694
  H        33.2563439955       14.2569705920       14.3449489623
  H        33.4115918065       14.4317734578        1.5721676584
  H        32.0262671587       18.6191820388       13.1546967805
  H        30.2209348283       14.2033164260        0.0579542584
  H        16.1188410494        2.9632267834        4.1354050352
  H        14.9536984192        4.8202066134        5.3281499344
  H        17.3648322166        7.6860120087        3.2140313395
  H        18.5135373539        5.8185548436        2.0141360961
  H        16.7530321543        5.7392232928        6.7767234736
  H        44.8280876897       32.1402713542        3.9823482082
  H        45.9373873096       30.3413258662        5.3117337281
  H        43.6826832760       27.3781812408        3.1574466402
  H        42.5998122747       29.1899802494        1.8150262390
  H        44.2301385087       29.4364874624        6.7739866456
  H        14.8512623185        8.5465582924        3.3684427945
  H        44.8993154252       32.2338815962       11.9263517744
  H        46.0241752146       30.4127935847       10.6468144646
  H        43.7637252205       27.4838695662       12.8406725154
  H        42.6459689301       29.3174893195       14.1197506799
  H        44.2680676684       29.4701492838        9.2130330880
  H        35.1353151350       26.6138442170       12.6227436912
  H        36.6047436727       35.1341290497        0.1857358147
  H        16.1441550036        3.0129340582       11.8985477598
  H        14.9745505991        4.8561765753       10.6828209012
  H        17.3947509004        7.7474200344       12.7512688721
  H        18.5418517282        5.8936056279       13.9789873125
  H        16.7641368235        5.7551704976        9.2141694775
  H        36.2778948181       34.4830254672       14.2680934864
  H        36.3799673116       34.2097267836        1.5051827883
  H        40.5811280230       33.2031922008       13.1486878141
  H        17.4707959407        1.9475532759       15.9691048207
  H        30.2930960477       19.7498021451        4.5174747939
  H        30.1215531771       20.1571545754       11.7972331983
  H        32.0005735478       16.1497789205       10.4697476915
  H        31.1940451518       15.6844021389        4.5356858714
  H        29.4697826491       16.1169988923        6.9723194824
  H        31.7844199987       13.5821592965        8.3533219876
  H        31.3608236771       19.4019285015        9.1930410214
  H        33.0071484514       16.8203026546        9.4349130578
  H        29.0002599193       16.6351444480        9.5202380185
  H        18.8528065968        0.8690207517        4.3402378619
  H        40.5275118262       35.2293729984       11.9469493436
  H        42.3236549906       34.4182623024       11.5861410288
  H        22.0876784234        0.6918346307        4.3568805913
  H        11.5970964173       18.7124787696        4.3873671859
  H        52.2654151995       18.4314447231       11.6725903812
  H        49.2550778319       16.4771654672       11.5795910063
  H        10.1498983458       15.7984853020        4.2981661330
  H        50.8506289166       17.6926109583       11.9490470224
  H        10.0458743496       17.3947667544        4.0569878584
  H        20.2136663071        0.0020341433        4.0473385508
  H        39.1832136942       36.1243779209       11.6812714309
  H        32.3333885285       17.9710678146        6.9609561514
 Ni        30.3937525452       18.0783281271       10.7490875841
 Ni        31.4603485879       16.0483433421        7.9982596594
 Ni        29.5057346466       18.8423156298        8.2382409665
 Ni        30.1357915398       17.5092782445        5.4057732534
  O        10.6499233054       14.3651552092       13.4807112362
  O        12.6132173703       14.6575193240       14.5787949931
  O        49.1476318620       16.8458391821       15.9845219612
  O        50.3501938112       20.9358022334       13.6428736080
  O        48.3484981798       20.5932759454       14.6608093270
  O        11.0516223849       17.0538064982       14.4956711797
  O        50.3209193148       20.8816363890        2.4119745238
  O        48.3466971076       20.5866932654        1.3321552696
  O        49.5437599682       18.2483832656        2.0731664426
  O        12.3592367648       18.6247236588        0.0047421888
  O        48.6930811840       14.1487740841       14.7461142026
  O         8.2098902929       14.2104570078        1.3276246994
  O        10.7352884483       14.5067567221        2.6694437102
  O        12.5718106418       14.5828209102        1.3336061861
  O        22.8452356294        2.0439135644       13.4817254350
  O        21.6068757399        3.5935274429       14.5833695100
  O        42.0582195559       34.1373734536       15.9739847373
  O        37.9824144579       33.1394531262       13.5679488001
  O        39.2191608859       31.5772350852       14.6627814849
  O        20.3085466638        1.0401050848       14.4970494318
  O        38.0249723473       33.1869661529        2.4196821522
  O        39.2181599787       31.5831381447        1.3324975912
  O        40.6522496973       33.7693757021        2.0654580731
  O        18.2554695205        1.3763492834        0.0019256340
  O        44.6222202891       35.1004977829       14.7536006304
  O        24.2053890948        0.0000151847        1.3259676744
  O        22.7533777805        2.0579739326        2.5890894292
  O        21.6252238865        3.5970110518        1.3489096364
  O        27.5044505338       18.7511872057       13.4911960974
  O        26.7674324387       16.9331694259       14.6494279864
  O        30.6548410901       19.4076351696        0.0970138923
  O        33.4908463855       16.4112686204       13.4965442866
  O        34.2695905193       18.1638022491       14.7320561281
  O        29.5633475047       17.0823112492       14.5713612047
  O        33.5527572288       16.3405190750        2.4189284702
  O        34.2957130458       18.2434259001        1.4117388026
  O        31.6547328459       18.3159532502        2.1551519158
  O        30.3205378539       15.1689679152        0.0765673974
  O        28.5516740058       21.0396434279       14.9040875829
  O        28.5133463761       20.9489514594        1.4200906879
  O        27.4985181138       18.6075401446        2.7408697144
  O        26.6957426425       16.9289498090        1.4195767164
  O        13.1492831914       18.6927713755        2.5926314222
  O        13.9195743182       16.9162881888        1.4102313249
  O        50.5961993965       19.3500664448        0.0253806414
  O        47.6830360350       16.3268613319        2.4222837991
  O        46.9509871396       18.1756640447        1.3300703375
  O        11.0699650821       17.0154652496        1.4946290577
  O        47.6733362337       16.3361795913       13.6469606603
  O        46.9250401560       18.2360703515       14.6581111735
  O        49.5685244139       18.3176559526       13.9770821281
  O        10.3187146314       15.1002698567        0.0022071818
  O        52.6707438154       21.0278537520        1.2469126844
  O        12.1468185736       20.8911771129       14.6681983507
  O        13.1088035111       18.6134931310       13.3203683412
  O        13.9575082162       16.9872539261       14.6601271369
  O        30.0101252621       14.4430800951        2.6765359285
  O        28.0835156591       14.6568460901        1.4935335660
  O        32.0782174375       16.8726240718        0.0704888134
  O        30.9361664849       20.8876390334        2.5028820879
  O        32.8956205207       20.6580647413        1.3482250008
  O        29.5619212732       17.0803707282        1.5842881355
  O        30.9153742804       21.0370977598       13.8231594534
  O        32.9635304133       20.5818152855       14.6752565335
  O        31.6511420563       18.3135976490       13.9979020528
  O        28.2805575536       18.6765043100        0.0972451999
  O        32.4946341573       14.2149232049        1.3199744093
  O        32.3687502198       14.2866545450       14.7393664872
  O        29.8761454477       14.5155289570       13.4026925636
  O        28.0431245352       14.5853718739       14.7429080513
  O        17.8892248643        1.9666050529        2.6678854076
  O        18.9563648587        3.5270938127        1.4130837034
  O        39.1687365811       34.1389442128        0.0024401840
  O        43.2802540494       33.0590074296        2.3367824289
  O        42.0345831807       31.5064703992        1.2468131288
  O        20.3177850863        1.0369043628        1.4851546813
  O        43.2759841881       33.1824551544       13.5698167566
  O        42.0052137952       31.5840796926       14.5779889241
  O        40.5792912292       33.7753858327       13.9311706032
  O        22.3673182778        1.3848534405        0.0030559433
  O        36.6727245139       35.0999241864        1.2383213937
  O        16.4454846026        0.0644370999       14.6632433096
  O        17.9364999454        2.0434691444       13.3213144596
  O        18.9192994926        3.5931076427       14.6608645265
  O        29.9992273285       19.2666276718       12.1713495751
  O        29.8219541451       18.9737572248        4.1660215064
  O        30.9248137619       16.4953444523       11.9074793593
  O        31.2206781844       16.5486091458        4.0837122850
  O        32.5743812163       15.9632807882        9.6571043733
  O        29.8608969404       17.0069114628        9.2468073659
  O        30.3310477580       16.0302020910        6.5084990946
  O        32.2324358024       17.7310572301        7.8999094684
  O        30.4961906708       19.5652072290        9.6432263899
  O        28.8131584580       18.0959382926        6.6654314109
  O        39.4566790330       35.2438713818       11.9968719993
  O        19.1407399785        0.0044643224        3.9957381679
  O        41.9697732470       35.1727677003       12.0821942207
  O        21.6912653438       -0.0694220650        3.9010208256
  O        51.3653500887       18.6143628381       12.0003287375
  O        10.7511619949       18.7470596416        3.9100179762
  O        50.0795843525       16.4127211407       12.0867049979
  O         9.5240480255       16.4832059110        3.9962992497
 Zr         9.2972739317       16.0530909305       14.1773494306
 Zr        49.8371991210       16.0069470059        1.7514064384
 Zr        22.0728181819        0.0295258719       14.1841928280
 Zr        42.4605002166       35.1530051040        1.8060943705
 Zr        29.6058417314       19.1394586076       14.3001546728
 Zr        29.5625965553       19.1609542172        1.9276357337
 Zr        11.0389182350       19.0518344833        1.8330094422
 Zr        11.0448386470       19.1547211672       14.2457063707
 Zr        31.3291730917       16.1251732855        1.8868740750
 Zr        31.3583805340       16.0782342666       14.2304674782
 Zr        18.6007226463       -0.0015488372        1.7683874884
 Zr        18.5060696927       -0.0076170460       14.2088240774
 Zr        12.3035601594       16.3240337964       15.9851071157
 Zr        48.6168117285       18.8330294950        0.0150942654
 Zr        20.3150390821        2.4734122879       15.9855153739
 Zr        40.6432019636       32.6866045303       15.9738779861
 Zr        28.3365032226       16.3541124180        0.0795113841
 Zr        32.6153135816       18.8563494542        0.0652660846
  O        30.9644622249       14.0722342253        8.1639496428
  H        30.7216391309       13.8609467712        7.2411548968
  H        30.2449007975       15.8069598278       11.7748290889
  H        29.2552569241       20.1524393223        7.6965212214
  H        28.3297817976       18.7743769840        6.1591901647
