     577
 i =      164, E =     -4796.1121029706
  C        11.8588794805       14.0533501106       13.7362228641
  C        12.4567623419       12.8907080131       13.0175704956
  C        11.7047864587       12.1709249993       12.0766872429
  C        12.2811761831       11.1090625018       11.3838093152
  C        13.6218202768       10.7394547373       11.6110894391
  C        14.3553024547       11.4434715134       12.5839218134
  C        13.7824193565       12.5081218162       13.2760550579
  C        14.2609517012        9.6486757228       10.8376148098
  C        14.2565909726        9.6566385197        9.4159300945
  C        13.7430194124       10.7585726842        8.6620151581
  C        49.1269687635       21.2355497414       13.8755747169
  C        48.5497783962       22.4028275716       13.1474053679
  C        49.3002080807       23.0700242178       12.1664478447
  C        48.7334180526       24.1087023004       11.4324504991
  C        47.4029070047       24.5100174815       11.6610983638
  C        46.6717757537       23.8623573099       12.6751435713
  C        47.2341740248       22.8180293688       13.4053443386
  C        46.7727284708       25.5873842311       10.8639436749
  C        46.7612389517       25.5577263951        9.4423247520
  C        47.2612240870       24.4426132533        8.6988873688
  C        14.8597786572        8.5697836945        8.7029386965
  C        14.8923428027        8.5973952147       11.5146573929
  C        49.1129789133       21.2034893243        2.1509172321
  C        48.5273079632       22.3654445157        2.8770910373
  C        49.2664478508       23.0259752770        3.8702691190
  C        48.6901823889       24.0604068287        4.6019662821
  C        47.3599929333       24.4578236923        4.3636710910
  C        46.6397739681       23.8132354111        3.3398986458
  C        47.2131406869       22.7774965674        2.6077127653
  C        46.7219862507       25.5327544512        5.1548777228
  C        46.7333961550       25.5287719413        6.5764829085
  C        47.2490203422       24.4292621888        7.3323827364
  C        40.6319049251       17.1357853039        7.3297207591
  C        40.6593989856       17.1743062058        4.5203646736
  C        11.8830026280       14.0867321648        2.2907579946
  C        12.4725502454       12.9111251534        2.9952468004
  C        11.7148064446       12.1779058017        3.9210904256
  C        12.2807641616       11.0944700594        4.5884834707
  C        13.6197584875       10.7210111194        4.3569450554
  C        14.3581447793       11.4367502929        3.3965611642
  C        13.7932982387       12.5190218326        2.7250802711
  C        14.2528531915        9.6237694247        5.1271945160
  C        14.2515392367        9.6435531286        6.5491002275
  C        13.7425138464       10.7530712752        7.2959374550
  C        22.5117217477        3.2454958945       13.7461415717
  C        23.2244839036        4.3513117558       13.0439521024
  C        24.2210511732        4.0714661754       12.0970965445
  C        24.8475410013        5.1106704631       11.4135966447
  C        24.4937661589        6.4530198283       11.6562334048
  C        23.5244630834        6.7244844133       12.6393134305
  C        22.8936031346        5.6869585975       13.3212652356
  C        25.0998486313        7.5593650846       10.8791515793
  C        25.0759611122        7.5510630479        9.4573096423
  C        24.3759498399        6.5505446887        8.7109187999
  C        38.3027494186       31.9292556318       13.8445569169
  C        37.5749219638       30.8383118198       13.1367562415
  C        36.6133816137       31.1397456374       12.1603485935
  C        35.9986871094       30.1173387132       11.4432509419
  C        36.3322240533       28.7694794355       11.6800867372
  C        37.2627559676       28.4755414307       12.6942765706
  C        37.8815836207       29.4964302943       13.4105432581
  C        35.7327124713       27.6768604859       10.8829586727
  C        35.7603098304       27.6970610088        9.4618145077
  C        36.4663428150       28.7003841489        8.7259740879
  C        25.7009766558        8.6197485012        8.7367667171
  C        25.6953513508        8.6360168999       11.5488213073
  C        38.3289811526       31.9643505328        2.1619728709
  C        37.6040337681       30.8950454847        2.9046213707
  C        36.6814795363       31.2113914339        3.9135487199
  C        36.0673015902       30.1978455252        4.6460002564
  C        36.3603669188       28.8436086138        4.3901715511
  C        37.2607543928       28.5373335958        3.3515346624
  C        37.8777341931       29.5475166856        2.6209842676
  C        35.7463462291       27.7484761879        5.1740847785
  C        35.7677553817       27.7333660230        6.5956249028
  C        36.4695359850       28.7179959435        7.3594775420
  C        46.1349181331       26.6211629391        7.2865680687
  C        46.0879372806       26.5807374436        4.4783512229
  C        22.4616607925        3.2551340157        2.2612507638
  C        23.1578780544        4.3634752318        2.9823677612
  C        24.1645000832        4.0772500823        3.9181816200
  C        24.7943238937        5.1072516234        4.6125142861
  C        24.4392598575        6.4529888538        4.3916340338
  C        23.4551666173        6.7325008809        3.4247239507
  C        22.8208757374        5.7027425337        2.7306972751
  C        25.0710631395        7.5502869760        5.1657769481
  C        25.0621745091        7.5451871082        6.5883574936
  C        24.3672887682        6.5488771474        7.3442824298
  C        26.5669479382       17.8286165472       13.8261962841
  C        25.2653441025       17.8633639093       13.0913522692
  C        25.0218131757       18.8547980580       12.1281500030
  C        23.8190325239       18.8712874218       11.4252808032
  C        22.8251758508       17.9011393386       11.6650736706
  C        23.0663754182       16.9309042056       12.6559415061
  C        24.2723931910       16.9069155746       13.3551328245
  C        21.5588022706       17.8906476726       10.8912699548
  C        21.5634154301       17.8741819703        9.4688107040
  C        22.7713226397       17.7507045403        8.7122132324
  C        34.4227376178       17.2235313964       13.9113705676
  C        35.7120049643       17.1598841162       13.1618005423
  C        35.9056720599       16.1981148319       12.1575281901
  C        37.0881827942       16.1783938565       11.4217838409
  C        38.1086711013       17.1173583828       11.6707663887
  C        37.9153095752       18.0593595553       12.6992564095
  C        36.7311844477       18.0854790629       13.4317801937
  C        39.3664595785       17.1213620671       10.8895120378
  C        39.3667552232       17.1434915986        9.4679997678
  C        38.1633480519       17.2727786486        8.7052757389
  C        20.3193148094       17.9020565267        8.7562616807
  C        20.3323124091       17.8978501315       11.5692328191
  C        34.4767156386       17.2495951776        2.1847428268
  C        35.7820380624       17.1761181749        2.9048197342
  C        35.9998555942       16.1875197955        3.8761289341
  C        37.1848942063       16.1708829193        4.6061938872
  C        38.1820136704       17.1397504220        4.3815943531
  C        37.9714882864       18.1023385433        3.3770614311
  C        36.7839906695       18.1243703991        2.6501206563
  C        39.4265839731       17.1581236797        5.1807341911
  C        39.3980251386       17.1640381140        6.6014858890
  C        38.1775578595       17.2794014446        7.3388292895
  C        35.1374708999       26.6528005221        7.2974800947
  C        35.1417560486       26.6876551860        4.4893048689
  C        26.5886361876       17.7960347198        2.3704702400
  C        25.2684979864       17.8512911099        3.0635002213
  C        24.9973571369       18.8606148840        3.9990599728
  C        23.7740092297       18.8912504849        4.6619271640
  C        22.7931146541       17.9111256115        4.4120610236
  C        23.0567122922       16.9285327516        3.4409573276
  C        24.2805643469       16.8970608728        2.7761031716
  C        21.5267492156       17.8923664033        5.1796687932
  C        21.5471961997       17.8749833101        6.6010313726
  C        22.7631478014       17.7500617651        7.3457644076
  C        14.0465390597       17.8296632349        2.2923143597
  C        15.3517618553       17.8881216455        3.0134684555
  C        15.6087562779       18.8905170823        3.9616496086
  C        16.8187330022       18.9106011186        4.6522909464
  C        17.8041918541       17.9305430570        4.4169529385
  C        17.5525555734       16.9538539595        3.4349576394
  C        16.3420235095       16.9289239529        2.7461340119
  C        19.0712906464       17.9080904615        5.1877150230
  C        19.0657180183       17.8978430371        6.6098844864
  C        17.8558693856       17.7993021955        7.3666960655
  C        46.8074722144       17.2202613996        2.1654761463
  C        45.5205423343       17.1651013329        2.9162334220
  C        45.3156684854       16.1911425172        3.9055033953
  C        44.1370823714       16.1803806319        4.6466004028
  C        43.1340492320       17.1422769677        4.4178886450
  C        43.3371916622       18.0968882836        3.4033140951
  C        44.5162999997       18.1118037290        2.6634743398
  C        41.8803933164       17.1552969646        5.2043005648
  C        41.8811971766       17.1514313949        6.6259791723
  C        43.0874587278       17.2429577702        7.3892498907
  C        20.3103797291       17.8999519941        7.3218326911
  C        20.2972354034       17.8889885881        4.5089937964
  C        46.7835154246       17.2289472643       13.8859827754
  C        45.4765191325       17.1213222236       13.1753581895
  C        45.2571109288       16.1241577809       12.2129956474
  C        44.0668155181       16.0956763682       11.4901149272
  C        43.0664358963       17.0619419076       11.7123261874
  C        43.2748833245       18.0272940054       12.7150217630
  C        44.4667855222       18.0622771037       13.4321793182
  C        41.8215034005       17.0883842982       10.9122603177
  C        41.8509690743       17.1147804103        9.4914067385
  C        43.0731638299       17.2233633778        8.7555940904
  C        46.1529425355       26.6376336911        8.7209979558
  C        46.1622761760       26.6559706690       11.5302920453
  C        14.0416342232       17.8285812640       13.7025090553
  C        15.3580398509       17.8957691084       13.0075268261
  C        15.6315301022       18.9080074072       12.0758662795
  C        16.8581716645       18.9385228321       11.4173614694
  C        17.8367977126       17.9551721739       11.6648068464
  C        17.5702767268       16.9723156549       12.6350191389
  C        16.3459056182       16.9409567638       13.2969208746
  C        19.1031501268       17.9245689535       10.8978201610
  C        19.0821569256       17.9041386424        9.4769214481
  C        17.8639263430       17.8023806059        8.7327500131
  C        28.8067289461       14.0840358984        2.3678199484
  C        28.2003211500       12.9126451169        3.0622147754
  C        28.9287579658       12.1683224269        4.0015232359
  C        28.3312238094       11.0958768956        4.6591480686
  C        26.9915304717       10.7422212646        4.3994218550
  C        26.2848192467       11.4662681879        3.4227226650
  C        26.8793167726       12.5403934993        2.7658540388
  C        26.3239661463        9.6622851802        5.1623920554
  C        26.3104679422        9.6898990920        6.5831329088
  C        26.8130992396       10.8039866046        7.3273360555
  C        32.1513694928       21.2734678329        2.1504418579
  C        32.7332834007       22.4477360485        2.8641915511
  C        31.9927689795       23.1049458943        3.8582008493
  C        32.5630736659       24.1446021784        4.5865851710
  C        33.8898260379       24.5494437190        4.3439612045
  C        34.6107155611       23.9123518886        3.3164701135
  C        34.0425950684       22.8694711571        2.5887320131
  C        34.5267879286       25.6168673773        5.1467001735
  C        34.5351172300       25.5761652913        6.5678756110
  C        34.0335246339       24.4558393336        7.3028290968
  C        25.6988243695        8.6131454030        7.3022532732
  C        25.6867823293        8.6118545828        4.4891911499
  C        32.1043260504       21.2319444581       13.8813272939
  C        32.7018547544       22.3759313313       13.1319753154
  C        31.9726362331       23.0275546750       12.1254620054
  C        32.5556674301       24.0552854270       11.3884814225
  C        33.8819582648       24.4592590872       11.6377775232
  C        34.5945895689       23.8183606229       12.6694157614
  C        34.0167320479       22.7850554739       13.4022416382
  C        34.5211246361       25.5419235808       10.8558838004
  C        34.5324931983       25.5382138356        9.4340097123
  C        34.0316095842       24.4381132656        8.6692684947
  C        40.6159408613       17.1218282421        8.7638775872
  C        40.5881186050       17.1084634927       11.5729447186
  C        28.7209193326       14.0960413688       13.7785170328
  C        28.1163857299       12.9473933716       13.0426248984
  C        28.8527123298       12.2499543623       12.0727969937
  C        28.2754512582       11.1856596278       11.3846554556
  C        26.9467951296       10.7915631055       11.6402369339
  C        26.2282306436       11.4769706179       12.6378997715
  C        26.8039708849       12.5400228925       13.3303326821
  C        26.3075457546        9.6981315924       10.8702504481
  C        26.3028895767        9.7089372081        9.4483237186
  C        26.8065478913       10.8147173930        8.6930050152
  C        18.1355130314        3.1797715723        2.3228713246
  C        17.4052741857        4.2764886970        3.0213348791
  C        16.3906613449        3.9978830741        3.9500428786
  C        15.7423736094        5.0379707159        4.6128891798
  C        16.0926404772        6.3819248904        4.3717849440
  C        17.0811067267        6.6513876032        3.4071008820
  C        17.7306733434        5.6141166943        2.7424504328
  C        15.4690070819        7.4900872672        5.1347409720
  C        15.4841363708        7.4892598553        6.5564413235
  C        16.1860543670        6.4959236262        7.3096979364
  C        42.9458070913       31.8598324042        2.0776426258
  C        43.6458140130       30.7722202349        2.8219390430
  C        44.5910265913       31.0935459027        3.8082552438
  C        45.1968352023       30.0880190123        4.5558337469
  C        44.8709429911       28.7348849163        4.3408707834
  C        43.9449586405       28.4206678748        3.3277741724
  C        43.3359092538       29.4256963224        2.5798102232
  C        45.4884369000       27.6554732867        5.1438519052
  C        45.4925441438       27.6813846819        6.5655058713
  C        44.8046909016       28.6889649434        7.3120615694
  C        14.8558392289        8.5621503227        7.2687039857
  C        14.8730093467        8.5614978832        4.4560304259
  C        42.9464995286       31.9615507088       13.8044563579
  C        43.6918590312       30.8852507712       13.0911741571
  C        44.6562269994       31.1906866799       12.1184835252
  C        45.2774615148       30.1712873168       11.4002636280
  C        44.9536394860       28.8210458294       11.6376197844
  C        44.0208487081       28.5232977623       12.6489827848
  C        43.3929709963       29.5401033521       13.3615455031
  C        45.5629432729       27.7239071569       10.8524657198
  C        45.5326049723       27.7176305371        9.4311954885
  C        44.8261309302       28.7076942660        8.6782389122
  C        35.1360243072       26.6334466032        8.7318894113
  C        35.1319539622       26.5985709650       11.5416473135
  C        18.1485593387        3.2466088905       13.7013745714
  C        17.4288869720        4.3431391436       12.9927205334
  C        16.4132833858        4.0523479947       12.0693202243
  C        15.7659674391        5.0831028717       11.3930982841
  C        16.1211056458        6.4282792134       11.6154593064
  C        17.1123456303        6.7113205128       12.5729787902
  C        17.7589254078        5.6822385850       13.2535004366
  C        15.4900278197        7.5238058330       10.8432333448
  C        15.4964209345        7.5070253239        9.4220843748
  C        16.1925358105        6.5050408090        8.6752787937
  H        10.6726261458       12.4649311983       11.8995598102
  H        11.6948760957       10.5503369117       10.6575274587
  H        15.3925226867       11.1692073203       12.7649073910
  H        14.3527384950       13.0716813228       14.0106492130
  H        13.3767699258       11.6310105381        9.1953578529
  H        50.3226594327       22.7497067027       11.9810075364
  H        49.3192929185       24.6231862739       10.6738438556
  H        45.6420941360       24.1631820285       12.8572084179
  H        46.6629527517       22.2933626015       14.1676123444
  H        47.6299373921       23.5764782533        9.2408485049
  H        14.8727813548        8.5885041109       12.6029450311
  H        50.2864597723       22.7028615374        4.0651320209
  H        49.2688230758       24.5754730210        5.3655555005
  H        45.6106025376       24.1113622676        3.1510719492
  H        46.6520535330       22.2562826851        1.8356483336
  H        47.6080160370       23.5521643518        6.8015472644
  H        40.6695079583       17.1437431331        3.4325379174
  H        48.6872118354       14.0974491197       15.7961157127
  H        10.6813195076       12.4670591181        4.0977108555
  H        11.6880492592       10.5233548696        5.2999634535
  H        15.3934522614       11.1583300611        3.2102809249
  H        14.3660398606       13.0884783511        1.9970593830
  H        13.3757707280       11.6217649416        6.7573601084
  H        47.9304120465       14.2185819975        1.7161867881
  H        47.7807279567       14.3788511035       14.4909355747
  H        49.0842571777       18.5539144676        2.8724966734
  H        10.4162985183       14.1346700827        0.0022876497
  H        24.4830635147        3.0329357779       11.9070109062
  H        25.6208201908        4.8923274401       10.6802569322
  H        23.2425713855        7.7572199823       12.8335895747
  H        22.1237057696        5.8878859440       14.0623292599
  H        23.8136932214        5.7943103156        9.2509153126
  H        36.3727610193       32.1822138641       11.9657782289
  H        35.2530007400       30.3531563600       10.6872376196
  H        37.5267965740       27.4372537626       12.8841783573
  H        38.6266783173       29.2785110990       14.1719598246
  H        37.0351289652       29.4466460280        9.2729786182
  H        25.7277137441        8.6216837626       12.6367985190
  H        36.4681305003       32.2574052354        4.1215196332
  H        35.3463541415       30.4476279247        5.4212926687
  H        37.4976916435       27.4950237040        3.1486852930
  H        38.5958380902       29.3172285863        1.8377743882
  H        37.0433296374       29.4762948221        6.8344865724
  H        46.1096249679       26.5884031112        3.3903361402
  H        44.6702381734       35.1162563415       15.8051997250
  H        24.4429641617        3.0390086247        4.0836711850
  H        25.5784683700        4.8785219619        5.3311401750
  H        23.1696591398        7.7671545613        3.2457680172
  H        22.0457844677        5.9157001648        1.9981986306
  H        23.7977801300        5.7922014124        6.8125368995
  H        44.9536539100       34.3890181164        1.6992435959
  H        44.8989657635       34.2053910724       14.4835116813
  H        40.6650871138       33.2092104919        2.8569155574
  H        23.1515767075        1.9583380249        0.0086459954
  H        25.7909781696       19.6019507211       11.9453448866
  H        23.6342750676       19.6452641546       10.6833939059
  H        22.3099390319       16.1727628138       12.8482148036
  H        24.4705248819       16.1447332322       14.1051268592
  H        23.7101422394       17.6250698990        9.2438405360
  H        35.1152236976       15.4759933871       11.9641119764
  H        37.2382205897       15.4237595932       10.6527300991
  H        38.6941531910       18.7935218314       12.8949577224
  H        36.5662061357       18.8275191874       14.2096343708
  H        37.2230428675       17.3963322751        9.2344621432
  H        20.3354136972       17.9362128999       12.6570917489
  H        35.2188417819       15.4523924042        4.0564365853
  H        37.3538465494       15.4024919768        5.3574707027
  H        38.7355825036       18.8563836787        3.1998665326
  H        36.5983659478       18.8858973883        1.8962369359
  H        37.2485651648       17.4068825372        6.7905272445
  H        35.1034539167       26.7222117870        3.4022257137
  H        28.5034100274       21.0839213835       15.9929274925
  H        25.7559279122       19.6169956816        4.1865488811
  H        23.5630375976       19.6770095366        5.3840268719
  H        22.3061337532       16.1665483339        3.2415044280
  H        24.5014262034       16.1274253804        2.0404363174
  H        23.6961617857       17.6243170991        6.8043920215
  H        29.0043461948       21.7087405856        1.7786414886
  H        29.1618739010       21.7411642472       14.6283959090
  H        32.1197501969       18.5806444202        2.9786764017
  H        27.3676780079       19.0585661257        0.1388431706
  H        14.8500931846       19.6488192272        4.1416629847
  H        17.0150657009       19.6930562012        5.3822043061
  H        18.3038799954       16.1901919514        3.2443267267
  H        16.1346453229       16.1614688634        2.0043262569
  H        16.9147157142       17.6889849341        6.8360062891
  H        46.0972629708       15.4571085193        4.0871622124
  H        43.9773474130       15.4171303211        5.4050230906
  H        42.5707099592       18.8479741424        3.2241840691
  H        44.6907714873       18.8625041066        1.8962572454
  H        44.0309358870       17.3603602464        6.8637258164
  H        20.2949780156       17.9241880836        3.4209813259
  H        46.0351499878       15.3859279973       12.0322347876
  H        43.9005029611       15.3228340299       10.7427967084
  H        42.5075850132       18.7776298242       12.8939310493
  H        44.6499097432       18.8275588732       14.1824773639
  H        44.0055093931       17.3244848400        9.3035045755
  H        46.1995663115       26.6828293383       12.6177038022
  H        52.7415256419       21.0629005891        0.1997850996
  H        14.8734328019       19.6645630317       11.8857463134
  H        17.0718310156       19.7262351170       10.6981862966
  H        18.3192764536       16.2084502134       12.8331572201
  H        16.1232292840       16.1697078924       14.0301739373
  H        16.9284496012       17.6945671020        9.2735421335
  H        52.3234522312       21.6739589969       14.2890733856
  H        52.0138352022       21.7031627447        1.5004976697
  H        49.0676757535       18.6087835692       13.1983942634
  H        13.2476244276       19.0163173341       15.9710452569
  H        29.9617306270       12.4445405034        4.2005602418
  H        28.8962161521       10.5173691169        5.3868310492
  H        25.2496779344       11.2034089189        3.2145455771
  H        26.3308743988       13.1216392153        2.0287190922
  H        27.1765664805       11.6727893069        6.7864590084
  H        30.9763349948       22.7738596727        4.0571645304
  H        31.9848997994       24.6538956137        5.3544844007
  H        35.6372580357       24.2174146608        3.1237468713
  H        34.6046523639       22.3495348829        1.8164656065
  H        33.6709583088       23.5915125590        6.7538191120
  H        25.7159834445        8.5926730622        3.4011542181
  H        30.9510908477       22.7120002852       11.9270361216
  H        31.9820096586       24.5626568301       10.6159759032
  H        35.6214303816       24.1190693216       12.8668979301
  H        34.5712175123       22.2687410479       14.1824479206
  H        33.6680221743       23.5591855287        9.1937868470
  H        40.5768216955       17.0633381626       12.6603330497
  H        32.5205274277       14.1465403444        0.2671163770
  H        29.8783459449       12.5527319962       11.8749386906
  H        28.8539034058       10.6405119920       10.6420637446
  H        25.1994297977       11.1869271213       12.8413506046
  H        26.2459724262       13.0844743337       14.0884659477
  H        27.1641549799       11.6923873296        9.2233991633
  H        33.2878278246       14.1853633724       14.4181070813
  H        33.4112206778       14.4121132043        1.6109917738
  H        32.1930953707       18.6106572404       13.2513083742
  H        30.2321705693       14.1908199530        0.0709549842
  H        16.1199748555        2.9612006662        4.1376504303
  H        14.9536099472        4.8183954368        5.3292346791
  H        17.3624174434        7.6843540821        3.2129041382
  H        18.5116218560        5.8169966942        2.0134920312
  H        16.7524214122        5.7384357529        6.7762304257
  H        44.8272742983       32.1406019842        3.9825029952
  H        45.9367103840       30.3417605325        5.3117893149
  H        43.6824965882       27.3785467861        3.1575194287
  H        42.5992601802       29.1903519068        1.8151914506
  H        44.2293032435       29.4367535278        6.7738427788
  H        14.8498587546        8.5445681131        3.3677931831
  H        44.8994828598       32.2333530377       11.9265609593
  H        46.0240728233       30.4122960108       10.6466875769
  H        43.7642016604       27.4834769170       12.8405403852
  H        42.6464700608       29.3170046424       14.1199568891
  H        44.2673849302       29.4701507872        9.2131914767
  H        35.0909594900       26.6087818999       12.6291745724
  H        36.6072942382       35.1345482030        0.1897711177
  H        16.1420493451        3.0128336546       11.8992909467
  H        14.9737266508        4.8564037914       10.6828619260
  H        17.3962654131        7.7466957244       12.7497551247
  H        18.5421916836        5.8925617444       13.9778739824
  H        16.7641394645        5.7549826053        9.2137910133
  H        36.2772909988       34.4832740531       14.2688339358
  H        36.3847094665       34.2078918697        1.5056130406
  H        40.5787081056       33.2020531598       13.1485685752
  H        17.4745875242        1.9459000805       15.9715181422
  H        29.0209504608       19.2875260387        4.5095570355
  H        29.8231911592       19.9941194184       11.7866263603
  H        32.2049615216       16.0658883163       10.6292026370
  H        30.8763466415       15.5122941202        4.3637718070
  H        29.0943115286       16.1697469725        6.7913464995
  H        31.4618537250       13.4956485753        8.0823742348
  H        31.8093080682       20.0140316257        9.7060894189
  H        33.2807092914       16.8545543648        9.8011703742
  H        29.1152236061       16.8281516798        9.4382668088
  H        18.9038993290        0.8514459780        4.3677080366
  H        40.5240082597       35.2299321102       11.9462771560
  H        42.3241448597       34.4188294585       11.5842768901
  H        22.0956398401        0.6990779809        4.3488541007
  H        11.5967429307       18.7126997670        4.3874537838
  H        52.2649411097       18.4311098136       11.6729477277
  H        49.2548646959       16.4779348902       11.5795321212
  H        10.1513314086       15.7982041237        4.2956134024
  H        50.8499225920       17.6927097022       11.9485926951
  H        10.0462897938       17.3945995175        4.0571973524
  H        20.2919096950        0.0047515859        4.0393288229
  H        39.1813778377       36.1252185508       11.6839224697
  H        32.6365269617       17.9688822254        6.7677579621
 Ni        30.7360779898       17.9842678330       11.1565089822
 Ni        31.2368343576       16.2329917075        8.0790046693
 Ni        30.0143110072       19.0359653195        8.4101782373
 Ni        30.4288181081       17.5390909477        5.4161603683
  O        10.6499754559       14.3656964349       13.4806563622
  O        12.6128523348       14.6578379522       14.5783935233
  O        49.1466241559       16.8453467766       15.9857813908
  O        50.3495081016       20.9365169178       13.6423622550
  O        48.3480827330       20.5940021635       14.6599537860
  O        11.0509154069       17.0543472924       14.4957850440
  O        50.3205111300       20.8811284801        2.4123221297
  O        48.3459879111       20.5871844722        1.3327267022
  O        49.5445644144       18.2489537999        2.0739830862
  O        12.3590074548       18.6249575214        0.0044130202
  O        48.6930053281       14.1495387681       14.7466643406
  O         8.2093839103       14.2105345210        1.3263376084
  O        10.7345351034       14.5062980132        2.6673603798
  O        12.5705874162       14.5832959470        1.3333190826
  O        22.8460943116        2.0443158059       13.4816748386
  O        21.6061313759        3.5928947102       14.5836564220
  O        42.0601731445       34.1363846366       15.9718806683
  O        37.9818099711       33.1372953359       13.5678528065
  O        39.2185891919       31.5762850766       14.6621731233
  O        20.3089470226        1.0400672569       14.4964900358
  O        38.0268190230       33.1882995490        2.4207962474
  O        39.2188233128       31.5845542211        1.3321576604
  O        40.6562622322       33.7682709827        2.0630634872
  O        18.2591244777        1.3743533890        0.0031365733
  O        44.6233321396       35.1004534225       14.7516160818
  O        24.2068845948       -0.0000004810        1.3255755564
  O        22.7533441993        2.0572264859        2.5892523984
  O        21.6246746454        3.5964168623        1.3474759280
  O        27.4118406803       18.7514239501       13.5817866377
  O        26.7327579731       16.8624257140       14.6573469543
  O        30.6596628492       19.4080853892        0.0895644208
  O        33.5463190739       16.3310793077       13.6486007060
  O        34.2763485766       18.1830723049       14.7387889520
  O        29.5674784139       17.0715451303       14.5753661659
  O        33.6200825069       16.3324182901        2.4187989521
  O        34.3040723969       18.2525284986        1.4119767997
  O        31.6536188965       18.3142316928        2.1692159429
  O        30.3246734062       15.1576665854        0.0828673227
  O        28.5492171562       21.0377490262       14.9108965943
  O        28.5121372036       20.9503958258        1.4207892902
  O        27.4960528878       18.6114174799        2.7440726610
  O        26.6916608483       16.9285085379        1.4278047398
  O        13.1481146951       18.6932166978        2.5913817910
  O        13.9182362804       16.9168414197        1.4088322145
  O        50.5962711365       19.3501573879        0.0250105696
  O        47.6849678752       16.3281473886        2.4235152843
  O        46.9522083372       18.1764294258        1.3304688588
  O        11.0692244018       17.0161504696        1.4943917504
  O        47.6748910076       16.3348618508       13.6477506036
  O        46.9248181926       18.2354029259       14.6586671465
  O        49.5703425173       18.3179084998       13.9754862652
  O        10.3183747888       15.1003528232        0.0007102198
  O        52.6704610480       21.0281164467        1.2467003563
  O        12.1464952449       20.8912963190       14.6684991586
  O        13.1074622777       18.6154439064       13.3214657274
  O        13.9554587384       16.9862919288       14.6616991065
  O        29.9999650724       14.4303622947        2.6709425284
  O        28.0788941126       14.6557324191        1.4893407629
  O        32.1398458319       16.8624242385        0.0867721509
  O        30.9507685553       20.9508186277        2.4241617231
  O        32.9189895537       20.6539742507        1.3335624612
  O        29.5698175544       17.0740713895        1.5779395513
  O        30.8749911158       20.9557367367       13.6649321653
  O        32.8815137884       20.5838847975       14.6606849893
  O        31.6772018313       18.2638095014       13.9962385072
  O        28.2507273061       18.6560289518        0.1357060084
  O        32.4970228047       14.2126859832        1.3360104965
  O        32.4016039879       14.2159217268       14.8149985370
  O        29.8764349826       14.5064559785       13.4090659521
  O        28.0442237965       14.5831508928       14.7451030916
  O        17.8892443427        1.9653504850        2.6674090787
  O        18.9559750800        3.5261362114        1.4129893363
  O        39.1698926582       34.1402017640        0.0045332729
  O        43.2806080511       33.0594456959        2.3368306785
  O        42.0344079845       31.5066877653        1.2470164759
  O        20.3215673966        1.0376657818        1.4839611064
  O        43.2750008980       33.1828184044       13.5694003765
  O        42.0048350126       31.5843175124       14.5777599314
  O        40.5797140997       33.7753317602       13.9302278966
  O        22.3686271727        1.3849103692        0.0025493149
  O        36.6738749941       35.0998052886        1.2407183423
  O        16.4461455085        0.0642690380       14.6631256201
  O        17.9376390926        2.0432844126       13.3204909515
  O        18.9193958992        3.5929883725       14.6606139423
  O        29.6498376644       19.1379087332       12.2236554174
  O        29.8043289583       18.9032475565        4.0772676445
  O        31.2229786627       16.2715283272       12.0667479917
  O        31.2687483994       16.3342399587        4.0095827141
  O        32.6592560039       16.1126937030        9.7287407865
  O        30.0067361465       17.2146464281        9.3991045777
  O        29.9621529964       15.8258823081        6.5015470021
  O        31.7036851816       17.8076473140        6.9867149675
  O        30.9531721089       19.6193993220        9.9298723984
  O        29.0275190025       18.3242973540        6.9776344673
  O        39.4552903515       35.2440563067       11.9972720099
  O        19.2006997670        0.0032830090        3.9934608958
  O        41.9701469684       35.1725682543       12.0813854368
  O        21.7010084342       -0.0691738241        3.9028468378
  O        51.3647985894       18.6146361408       12.0001576951
  O        10.7510498637       18.7469717986        3.9096167337
  O        50.0794085446       16.4114176088       12.0864269785
  O         9.5247219074       16.4830909818        3.9955359703
 Zr         9.2980134592       16.0534512047       14.1774161750
 Zr        49.8376416019       16.0063019245        1.7511766372
 Zr        22.0723561136        0.0310627850       14.1810941325
 Zr        42.4635362156       35.1524780804        1.7963454129
 Zr        29.5591159012       19.1113308223       14.3353562629
 Zr        29.5758564479       19.1558968643        1.9129679093
 Zr        11.0394617482       19.0524318849        1.8326185306
 Zr        11.0452421011       19.1552635383       14.2453745545
 Zr        31.3500666111       16.1008002600        1.8912082056
 Zr        31.3986438134       16.0308875396       14.3044596781
 Zr        18.6072630818        0.0007801738        1.7805811181
 Zr        18.5058679177       -0.0087847204       14.2118316769
 Zr        12.3028901168       16.3239198490       15.9848061205
 Zr        48.6176341615       18.8337319226        0.0138433736
 Zr        20.3147170126        2.4741394174       15.9846142654
 Zr        40.6409664297       32.6876023627       15.9725307456
 Zr        28.3326776397       16.3421714046        0.0896963465
 Zr        32.6177335742       18.8568001916        0.0743538271
  O        30.7516353166       14.1356498922        8.2524600987
  H        30.3068715078       14.3420217925        7.3763089514
  H        30.5108839598       15.6229737137       11.8866053124
  H        30.0198581264       20.3420780252        7.7999030088
  H        28.4029915966       18.9952017382        6.6567834390
