     580
 i =      129, E =     -4813.3534818705
  C        11.8585744268       14.0534556708       13.7365238539
  C        12.4560799869       12.8905303640       13.0182310608
  C        11.7044964054       12.1718302267       12.0763042365
  C        12.2809050406       11.1096975060       11.3838809383
  C        13.6213600133       10.7396150409       11.6118866486
  C        14.3543601161       11.4428884310       12.5857087591
  C        13.7814416399       12.5077746002       13.2773139078
  C        14.2609531638        9.6490154523       10.8384700833
  C        14.2562654206        9.6569491018        9.4167718281
  C        13.7430521552       10.7590288602        8.6628345504
  C        49.1266720637       21.2331827923       13.8745695381
  C        48.5499866948       22.4011076842       13.1475667306
  C        49.3000194540       23.0684409320       12.1665649663
  C        48.7331022053       24.1075843758       11.4333794792
  C        47.4025361849       24.5092136296       11.6619441424
  C        46.6715762772       23.8603142971       12.6754418555
  C        47.2340040234       22.8153925899       13.4047809145
  C        46.7723331481       25.5869099337       10.8646475095
  C        46.7614615693       25.5573316287        9.4428847122
  C        47.2613534144       24.4422175638        8.6993926554
  C        14.8603448695        8.5706898292        8.7035123401
  C        14.8917354349        8.5970601640       11.5151242232
  C        49.1131397517       21.2034678825        2.1504152628
  C        48.5278012543       22.3647401789        2.8775935978
  C        49.2670927494       23.0255430981        3.8704207041
  C        48.6907713099       24.0600730081        4.6018979087
  C        47.3603252853       24.4568026916        4.3637208879
  C        46.6398411607       23.8118040170        3.3403029890
  C        47.2133779746       22.7759021284        2.6085118964
  C        46.7219366422       25.5317989112        5.1547524162
  C        46.7337337527       25.5281688706        6.5764525978
  C        47.2491071246       24.4289305038        7.3328397049
  C        40.6200502035       17.1048352801        7.3190435065
  C        40.6348747760       17.1142725143        4.5092830243
  C        11.8828414506       14.0863897654        2.2905270916
  C        12.4720908297       12.9105034924        2.9946061062
  C        11.7147082507       12.1776192653        3.9210842082
  C        12.2812620672       11.0951139843        4.5894430845
  C        13.6199891662       10.7211553174        4.3574111128
  C        14.3577574427       11.4363164147        3.3961345220
  C        13.7923753347       12.5175268982        2.7234740078
  C        14.2536780560        9.6245109928        5.1278745615
  C        14.2524033278        9.6445426951        6.5497160059
  C        13.7425023020       10.7534801639        7.2967901158
  C        22.5122338070        3.2442461154       13.7483502804
  C        23.2275720344        4.3492695400       13.0496069458
  C        24.2235005355        4.0689971450       12.1023823172
  C        24.8506491332        5.1084972004       11.4204184444
  C        24.4975381204        6.4502554631       11.6658473223
  C        23.5302828274        6.7220337780       12.6505113812
  C        22.8984311764        5.6844068325       13.3307796953
  C        25.1011584742        7.5574116725       10.8896421909
  C        25.0668058131        7.5532209724        9.4683835009
  C        24.3638379507        6.5536290402        8.7235733703
  C        38.3033344640       31.9299530013       13.8438222779
  C        37.5754077496       30.8401456474       13.1335987092
  C        36.6178138869       31.1430406645       12.1537178832
  C        36.0027803358       30.1218787345       11.4349078841
  C        36.3307567474       28.7731704618       11.6748301186
  C        37.2587000700       28.4777747479       12.6911097815
  C        37.8780151013       29.4975970653       13.4085234131
  C        35.7299997565       27.6806663948       10.8780388415
  C        35.7609150163       27.6952089381        9.4568872894
  C        36.4670376899       28.6971452589        8.7193384406
  C        25.6845304093        8.6258380696        8.7480251058
  C        25.7022144210        8.6301542304       11.5595366575
  C        38.3286228404       31.9623103060        2.1608898933
  C        37.6065032894       30.8891539205        2.9020661624
  C        36.6800888104       31.1979875571        3.9097631949
  C        36.0701599362       30.1794063138        4.6392235221
  C        36.3724524495       28.8267909147        4.3842920427
  C        37.2761773879       28.5279947083        3.3463122239
  C        37.8883866189       29.5430698320        2.6182266063
  C        35.7652979022       27.7275583522        5.1686786142
  C        35.7790264205       27.7191177539        6.5905711373
  C        36.4755258914       28.7087801643        7.3528518865
  C        46.1357660955       26.6208262244        7.2865846075
  C        46.0879599426       26.5801403569        4.4786910618
  C        22.4595716516        3.2558773082        2.2630578358
  C        23.1504022586        4.3655102215        2.9868674036
  C        24.1508239976        4.0816639798        3.9300527890
  C        24.7751443274        5.1133972961        4.6268169292
  C        24.4191082918        6.4584511920        4.4028176305
  C        23.4419267290        6.7354974621        3.4280234831
  C        22.8128866432        5.7040885309        2.7318556317
  C        25.0463510614        7.5582795936        5.1769887193
  C        25.0397566165        7.5525495405        6.5997900108
  C        24.3491969218        6.5541890812        7.3569560870
  C        26.6128187101       17.8593376432       13.7805150890
  C        25.3079868199       17.9004641152       13.0529362578
  C        25.0384843290       18.9053818445       12.1098709215
  C        23.8270258504       18.9191743644       11.4211232594
  C        22.8469800937       17.9333865103       11.6566131470
  C        23.1120909363       16.9511738313       12.6293389770
  C        24.3266084845       16.9303058364       13.3135636551
  C        21.5737102715       17.9172291911       10.8925297074
  C        21.5755954935       17.8971014555        9.4703770531
  C        22.7821835300       17.7726321536        8.7117505912
  C        34.4283197983       17.2195377611       13.9100696895
  C        35.7198402837       17.1549237260       13.1662316077
  C        35.9126016965       16.1963295923       12.1593565371
  C        37.0947641788       16.1762749852       11.4239544687
  C        38.1160634237       17.1138334549       11.6739867624
  C        37.9253387060       18.0520664766       12.7066825403
  C        36.7413852328       18.0772987750       13.4398098974
  C        39.3701537135       17.1197840880       10.8862363731
  C        39.3649105531       17.1335453973        9.4640211612
  C        38.1579769579       17.2589011391        8.7063607180
  C        20.3298567652       17.9166855874        8.7607086761
  C        20.3488376953       17.9198977406       11.5742740031
  C        34.4457897186       17.2360908294        2.1889735005
  C        35.7484788746       17.1365176712        2.9095469311
  C        35.9485997271       16.1669948647        3.9035828385
  C        37.1375307426       16.1408278958        4.6287986095
  C        38.1553035758       17.0827830031        4.3800732694
  C        37.9614065018       18.0239259762        3.3513549809
  C        36.7717644726       18.0556865926        2.6298043495
  C        39.4035500130       17.1030133472        5.1750487620
  C        39.3820477516       17.1247041559        6.5965658193
  C        38.1662206080       17.2523441686        7.3397389352
  C        35.1494438756       26.6396085926        7.2949827542
  C        35.1722425154       26.6584889395        4.4860402333
  C        26.5904863513       17.7914053223        2.3664348853
  C        25.2733172699       17.8452894032        3.0650068803
  C        25.0033168575       18.8560028904        3.9996779692
  C        23.7789619027       18.8892136871        4.6607706084
  C        22.7966602668       17.9098096370        4.4126675898
  C        23.0605719689       16.9244691773        3.4442177377
  C        24.2844415999       16.8910843592        2.7791669542
  C        21.5304662195       17.8942623169        5.1812594550
  C        21.5534005078       17.8830847312        6.6027014214
  C        22.7713388308       17.7648166040        7.3455018747
  C        14.0468753095       17.8287663871        2.2935786691
  C        15.3522683546       17.8853466074        3.0179454804
  C        15.6102258196       18.8873986245        3.9663572663
  C        16.8197753483       18.9067402099        4.6585224780
  C        17.8056462033       17.9268376258        4.4242868085
  C        17.5526793750       16.9493533089        3.4433674449
  C        16.3425524399       16.9253936326        2.7529975248
  C        19.0744787969       17.9068177654        5.1938439828
  C        19.0719704044       17.9010535247        6.6163826691
  C        17.8641380579       17.8024826229        7.3765472507
  C        46.8029846080       17.2172862951        2.1634546905
  C        45.5111174484       17.1505045553        2.9067431830
  C        45.3079506065       16.1725450702        3.8929649986
  C        44.1248545546       16.1483683998        4.6269875681
  C        43.1136678375       17.1019454447        4.3975364228
  C        43.3138993485       18.0589803801        3.3840949949
  C        44.4979223199       18.0872770711        2.6510506967
  C        41.8598726763       17.1088511788        5.1867293742
  C        41.8663727650       17.1154670278        6.6090605259
  C        43.0754064812       17.2155073416        7.3669733520
  C        20.3180001555       17.9090908417        7.3260361587
  C        20.2994776849       17.8861801763        4.5128348337
  C        46.7839054319       17.2318659014       13.8820388289
  C        45.4808616168       17.1267557142       13.1646779275
  C        45.2626790743       16.1298216726       12.2014255258
  C        44.0743026070       16.1025119649       11.4752741939
  C        43.0732267683       17.0690066617       11.6943859798
  C        43.2821673845       18.0360240080       12.6956683575
  C        44.4716607595       18.0697825804       13.4169647980
  C        41.8256518407       17.0903309793       10.8980041980
  C        41.8489820703       17.1051332264        9.4766356586
  C        43.0672285677       17.2076518817        8.7337664166
  C        46.1535024385       26.6372398064        8.7211329748
  C        46.1623389796       26.6560094783       11.5307769885
  C        14.0444433134       17.8300975419       13.7028638869
  C        15.3646580356       17.9004070698       13.0102218508
  C        15.6408609289       18.9159030794       12.0827032117
  C        16.8697201597       18.9496885583       11.4273716065
  C        17.8494377565       17.9669446662       11.6739566534
  C        17.5797633261       16.9796008009       12.6388956616
  C        16.3530382978       16.9454142758       13.2977437331
  C        19.1170721011       17.9398166684       10.9059700427
  C        19.0942745931       17.9169599710        9.4845272311
  C        17.8750020008       17.8096174746        8.7426157791
  C        28.8063466907       14.0879083258        2.3934185460
  C        28.1877610048       12.9175785651        3.0814257922
  C        28.9065227278       12.1755071094        4.0303850532
  C        28.3019983682       11.1051328863        4.6844868853
  C        26.9648826952       10.7516525784        4.4119064346
  C        26.2682339544       11.4728925251        3.4259336659
  C        26.8701834933       12.5446999525        2.7715575864
  C        26.2934477450        9.6735740611        5.1730366242
  C        26.2803391114        9.7013770093        6.5939347471
  C        26.7786555999       10.8171398568        7.3386306249
  C        32.1795106865       21.2407581947        2.1539265509
  C        32.7696976129       22.4096977824        2.8690027332
  C        32.0263892862       23.0793964098        3.8528587960
  C        32.5974703290       24.1184652033        4.5805067225
  C        33.9281127493       24.5150368890        4.3455915309
  C        34.6534171086       23.8644792971        3.3295684832
  C        34.0846224488       22.8203212440        2.6033946947
  C        34.5591364340       25.5881295515        5.1462427770
  C        34.5553482070       25.5565424674        6.5678872765
  C        34.0491568386       24.4402130179        7.3063543253
  C        25.6749704234        8.6217928230        7.3134969018
  C        25.6593618800        8.6212870837        4.5000371193
  C        32.1064984082       21.2334511745       13.8843079328
  C        32.7005328586       22.3823713711       13.1385079033
  C        31.9650499303       23.0425739981       12.1423577200
  C        32.5465261118       24.0691922205       11.4021683625
  C        33.8767209897       24.4659613618       11.6415639299
  C        34.5951390114       23.8191786766       12.6652057690
  C        34.0185869097       22.7862137690       13.3997830449
  C        34.5171499161       25.5459207144       10.8560104426
  C        34.5329476561       25.5358764638        9.4342042142
  C        34.0371574926       24.4307777452        8.6730897063
  C        40.6108543137       17.1044460769        8.7539883174
  C        40.5950794816       17.1140208458       11.5640743441
  C        28.7431221275       14.0615200051       13.8217572813
  C        28.1313853419       12.9155762146       13.0852678822
  C        28.8540751041       12.2493313331       12.0837371901
  C        28.2727548702       11.1952885706       11.3831841859
  C        26.9524153637       10.7839082984       11.6560674223
  C        26.2475443654       11.4398574021       12.6830634877
  C        26.8274608602       12.4928915097       13.3874211105
  C        26.3079699532        9.6966321623       10.8820393703
  C        26.2880193667        9.7142937146        9.4600961216
  C        26.7792181369       10.8252425958        8.7044751724
  C        18.1354871655        3.1809164630        2.3223142119
  C        17.4062240598        4.2782121813        3.0210095307
  C        16.3903278784        3.9999030548        3.9483250552
  C        15.7425900362        5.0399139245        4.6117771609
  C        16.0947417993        6.3835879460        4.3722820399
  C        17.0844020068        6.6530744727        3.4088134574
  C        17.7335124452        5.6157011343        2.7438169217
  C        15.4703281692        7.4912921803        5.1352562429
  C        15.4856454678        7.4906888645        6.5569641316
  C        16.1872605915        6.4971173441        7.3101338683
  C        42.9459649453       31.8595386356        2.0779892110
  C        43.6463734750       30.7718585151        2.8219484479
  C        44.5920602862       31.0931959883        3.8078610025
  C        45.1977973596       30.0876502289        4.5555120701
  C        44.8712228820       28.7346040853        4.3407828897
  C        43.9452284507       28.4202424765        3.3277376776
  C        43.3363880531       29.4253860342        2.5797116954
  C        45.4888362429       27.6553079680        5.1439660403
  C        45.4930805475       27.6809641045        6.5656605227
  C        44.8060624628       28.6890609940        7.3122773683
  C        14.8565452428        8.5631241803        7.2692902606
  C        14.8749249563        8.5629570296        4.4566284943
  C        42.9465338274       31.9615727487       13.8039491995
  C        43.6917099670       30.8854170218       13.0903888973
  C        44.6565150854       31.1913148074       12.1182997413
  C        45.2780439339       30.1717281053       11.4005680487
  C        44.9540293286       28.8214308554       11.6379601546
  C        44.0202798416       28.5237563131       12.6484804036
  C        43.3920247453       29.5405262871       13.3606690734
  C        45.5631200014       27.7240418853       10.8527193007
  C        45.5335322321       27.7173980928        9.4314205083
  C        44.8273100984       28.7076873258        8.6784584956
  C        35.1391580033       26.6281467278        8.7295876978
  C        35.1264973790       26.6050952098       11.5390667636
  C        18.1486083619        3.2469939494       13.7014700472
  C        17.4300283441        4.3438769348       12.9921449705
  C        16.4146509892        4.0526434997       12.0687708912
  C        15.7663407023        5.0832881864       11.3933846156
  C        16.1212129152        6.4284875558       11.6159611623
  C        17.1128489883        6.7118429596       12.5729499607
  C        17.7605244377        5.6829030451       13.2526876237
  C        15.4906786019        7.5241989763       10.8435399075
  C        15.4966001346        7.5076109022        9.4224060114
  C        16.1935038506        6.5059828765        8.6757373136
  H        10.6724507907       12.4661220951       11.8990647028
  H        11.6946986025       10.5514189058       10.6571222482
  H        15.3912867002       11.1680502507       12.7676760991
  H        14.3507715084       13.0707040370       14.0130749570
  H        13.3759401050       11.6311237115        9.1961173651
  H        50.3227392901       22.7484370066       11.9818531688
  H        49.3195696459       24.6228630563       10.6757978946
  H        45.6420546649       24.1610236900       12.8585581104
  H        46.6629161424       22.2901491947       14.1668135886
  H        47.6297460418       23.5757708285        9.2410620518
  H        14.8720217286        8.5882504836       12.6034305455
  H        50.2871534087       22.7027279062        4.0652876555
  H        49.2691695291       24.5755862199        5.3653535109
  H        45.6103962371       24.1089580385        3.1513326115
  H        46.6524295252       22.2536382897        1.8371100936
  H        47.6077613321       23.5517531718        6.8019547695
  H        40.6402507104       17.0744963769        3.4216672200
  H        48.6868762170       14.0949749190       15.7948275572
  H        10.6813012149       12.4668257926        4.0986430817
  H        11.6895269055       10.5248966810        5.3023281696
  H        15.3930642215       11.1581479519        3.2099124267
  H        14.3645848389       13.0865989468        1.9946063101
  H        13.3755460055       11.6220367691        6.7581562453
  H        47.9301418475       14.2180130548        1.7160579338
  H        47.7798405357       14.3730045647       14.4898602127
  H        49.0829316407       18.5521216650        2.8722297430
  H        10.4157308782       14.1343729200        0.0039010688
  H        24.4834626862        3.0303201247       11.9107365634
  H        25.6228003561        4.8911611147       10.6855840296
  H        23.2507340930        7.7551618388       12.8462024904
  H        22.1292072443        5.8846968104       14.0726001476
  H        23.8055527870        5.7954515500        9.2649635087
  H        36.3805798355       32.1860379314       11.9577628265
  H        35.2596996078       30.3595948211       10.6769043486
  H        37.5191048330       27.4389160696       12.8829227205
  H        38.6203814386       29.2780360959       14.1721428418
  H        37.0336411183       29.4459936578        9.2650863986
  H        25.7451991218        8.6088138513       12.6469850628
  H        36.4591834911       32.2422795117        4.1187289308
  H        35.3465665373       30.4241542310        5.4136412637
  H        37.5212951922       27.4876626150        3.1429277080
  H        38.6089892867       29.3175750600        1.8359099471
  H        37.0495725815       29.4661519782        6.8268600679
  H        46.1092526050       26.5874905389        3.3906530508
  H        44.6683311789       35.1162231315       15.8088307820
  H        24.4299686026        3.0440186008        4.0985120522
  H        25.5548374183        4.8865953418        5.3508234734
  H        23.1557739665        7.7694260293        3.2461161342
  H        22.0425332114        5.9149034583        1.9937046054
  H        23.7789061055        5.7971444708        6.8265285422
  H        44.9539823838       34.3905522421        1.7004260817
  H        44.9018555261       34.2067816490       14.4855735686
  H        40.6660262900       33.2091052979        2.8582287088
  H        23.1503345538        1.9580001076        0.0106716157
  H        25.7859165121       19.6766394121       11.9364946935
  H        23.6231248521       19.7040551006       10.6957959724
  H        22.3671735676       16.1810531709       12.8192212992
  H        24.5427234240       16.1580104025       14.0481877860
  H        23.7219916112       17.6510515138        9.2426301222
  H        35.1198482431       15.4796632458       11.9583138650
  H        37.2415694380       15.4247632955       10.6513542611
  H        38.7046352031       18.7851176873       12.9046523956
  H        36.5781612680       18.8175107201       14.2197048368
  H        37.2193686802       17.3904357593        9.2370440944
  H        20.3546204314       17.9587063457       12.6621841876
  H        35.1541787871       15.4524205693        4.1068810532
  H        37.2900389704       15.3861609449        5.3972800118
  H        38.7400839224       18.7574272700        3.1526598027
  H        36.6015614914       18.8021338224        1.8577124106
  H        37.2338432820       17.3778670902        6.7969428489
  H        35.1408568301       26.6862051517        3.3984860753
  H        28.5104419874       21.0880837977       15.9715469930
  H        25.7640278611       19.6095889258        4.1891858627
  H        23.5684247229       19.6771140394        5.3807134051
  H        22.3101074366       16.1616627458        3.2471128485
  H        24.5041590273       16.1192656654        2.0453792982
  H        23.7030891414       17.6368707318        6.8024775210
  H        28.9952095062       21.7169327320        1.7793551298
  H        29.1467314248       21.7546440448       14.6101513011
  H        32.1294070296       18.5459551151        2.9846339007
  H        27.4023901036       19.0770241472        0.1053166893
  H        14.8522451619       19.6465620338        4.1460942956
  H        17.0157011625       19.6899111751        5.3877697692
  H        18.3032003426       16.1847591724        3.2534081729
  H        16.1356253214       16.1571792831        2.0117075306
  H        16.9219819223       17.6887983355        6.8482434699
  H        46.0944431230       15.4446241018        4.0777931586
  H        43.9693995852       15.3821920560        5.3833800394
  H        42.5417984920       18.8035378424        3.2014678739
  H        44.6675116401       18.8411743314        1.8858005766
  H        44.0166243417       17.3294751216        6.8368084737
  H        20.2947582319       17.9172664563        3.4247250547
  H        46.0399319869       15.3901333025       12.0233404424
  H        43.9089802751       15.3283062840       10.7291540779
  H        42.5151371184       18.7872255139       12.8721809930
  H        44.6527654995       18.8356811404       14.1671079469
  H        44.0023062989       17.3143179657        9.2760153538
  H        46.1990373785       26.6825060070       12.6182276606
  H        52.7410129970       21.0625674820        0.1997580174
  H        14.8828569426       19.6725327973       11.8923230825
  H        17.0834809305       19.7402398149       10.7112313328
  H        18.3274890338       16.2141837288       12.8362472700
  H        16.1291262864       16.1706723813       14.0269935098
  H        16.9410169807       17.7013345011        9.2858145012
  H        52.3220820946       21.6731405852       14.2893071465
  H        52.0129043679       21.7018027835        1.5007716655
  H        49.0668873986       18.6077112373       13.1991128241
  H        13.2472857762       19.0163905970       15.9719926026
  H        29.9383296808       12.4499119774        4.2387089444
  H        28.8606298863       10.5287601984        5.4188016626
  H        25.2354152172       11.2089716257        3.2078426944
  H        26.3301867547       13.1232640346        2.0260703518
  H        27.1344849610       11.6886025901        6.7973511961
  H        31.0055079289       22.7579499761        4.0430949322
  H        32.0170233994       24.6369887120        5.3403431610
  H        35.6832875056       24.1618516544        3.1428569572
  H        34.6504075640       22.2917360562        1.8396500925
  H        33.6932417709       23.5704381734        6.7614173584
  H        25.6900972471        8.6009761412        3.4120785396
  H        30.9399672459       22.7297389119       11.9567329900
  H        31.9705522156       24.5821909439       10.6350812087
  H        35.6250903360       24.1144880327       12.8545595134
  H        34.5782974118       22.2632740641       14.1717673493
  H        33.6725344864       23.5537917381        9.2007208771
  H        40.5893504530       17.0747859452       12.6517088916
  H        32.5125642619       14.1496359807        0.2492598798
  H        29.8704860019       12.5734676415       11.8710627477
  H        28.8420094357       10.6732895792       10.6171805279
  H        25.2258636577       11.1352331568       12.9005824651
  H        26.2801194157       13.0146595053       14.1689056171
  H        27.1348346987       11.7033075953        9.2357052884
  H        33.3013325654       14.2058096227       14.4453293628
  H        33.4076681879       14.3956880056        1.6080525843
  H        32.1473681534       18.5713151628       13.2092358794
  H        30.2192819867       14.1901269459        0.0807516578
  H        16.1181257618        2.9634054800        4.1345582350
  H        14.9529593363        4.8205840422        5.3272511713
  H        17.3670671548        7.6859236091        3.2159116462
  H        18.5157943260        5.8182829106        2.0162082529
  H        16.7539134467        5.7398550504        6.7766258270
  H        44.8284364870       32.1402778283        3.9819386854
  H        45.9377829909       30.3414102083        5.3113381674
  H        43.6823777063       27.3781893176        3.1577636914
  H        42.5996287747       29.1900578521        1.8151816250
  H        44.2307803834       29.4368679908        6.7739526104
  H        14.8511697923        8.5461109730        3.3684084481
  H        44.9002558662       32.2339873301       11.9270478680
  H        46.0251121422       30.4129647813       10.6474951647
  H        43.7630720891       27.4840459251       12.8398152283
  H        42.6453531148       29.3177243486       14.1189433552
  H        44.2688506606       29.4706054008        9.2130436882
  H        35.0838931848       26.6179927086       12.6265086408
  H        36.6052072299       35.1340227487        0.1857435335
  H        16.1434546511        3.0130731313       11.8991936541
  H        14.9738796464        4.8564833670       10.6834365359
  H        17.3966002119        7.7472813959       12.7496208425
  H        18.5436576242        5.8932884000       13.9771928979
  H        16.7649782328        5.7557978567        9.2142152027
  H        36.2788780859       34.4822432120       14.2681299531
  H        36.3813873447       34.2089839464        1.5047385081
  H        40.5806200710       33.2028652361       13.1485029067
  H        17.4707263920        1.9473890870       15.9691114934
  H        28.7844012816       18.8829723404        4.3762047803
  H        28.7963145277       18.8575904214       11.9047243253
  H        31.9317077939       15.8942407794       11.6076864923
  H        31.2853500509       15.4726028389        4.4637047068
  H        28.5212144269       17.1554470727        7.0473194412
  H        29.6962202602       14.8714722544        6.6268241790
  H        30.5593286570       20.0954646983       10.0457406495
  H        32.6468362883       17.5918753254        9.2805479990
  H        28.8521168769       16.3670135431       11.4334270364
  H        18.8536619221        0.8690330805        4.3404263363
  H        40.5280728626       35.2289889074       11.9469336234
  H        42.3242215190       34.4191696285       11.5851471769
  H        22.0876848420        0.6918580852        4.3568320363
  H        11.5970250423       18.7128783010        4.3874466702
  H        52.2649071157       18.4311411047       11.6723845442
  H        49.2557155497       16.4768513104       11.5791074328
  H        10.1502958635       15.7980646541        4.2977823643
  H        50.8500166113       17.6923334966       11.9492503407
  H        10.0460638723       17.3944106424        4.0571281686
  H        20.2149220841        0.0021426669        4.0470903067
  H        39.1838183643       36.1244900458       11.6813287414
 Ni        30.7423938460       17.7978491209       10.9051243149
 Ni        30.9798806589       16.1872856495        8.3262015015
 Ni        30.0565008541       18.9189117677        7.9104060311
 Ni        30.2687196319       17.3256730666        5.4121394258
  O        10.6498637447       14.3651523162       13.4807231785
  O        12.6131285988       14.6575413638       14.5787883379
  O        49.1478208185       16.8460027887       15.9846584386
  O        50.3502381711       20.9358684329       13.6430960467
  O        48.3485076676       20.5932984899       14.6608777145
  O        11.0513975884       17.0539563096       14.4955512416
  O        50.3210146012       20.8816086540        2.4118844517
  O        48.3467403127       20.5866924512        1.3322072954
  O        49.5435677736       18.2484175607        2.0733577114
  O        12.3588819405       18.6245749675        0.0048459180
  O        48.6931878990       14.1486517212       14.7461416446
  O         8.2098378466       14.2104136166        1.3276537991
  O        10.7353762604       14.5067951709        2.6694413347
  O        12.5717858688       14.5828690485        1.3336032235
  O        22.8445211498        2.0429995205       13.4821404342
  O        21.6054770967        3.5921707131       14.5845991952
  O        42.0582842908       34.1374731419       15.9739388285
  O        37.9819371759       33.1381464457       13.5674316442
  O        39.2183730463       31.5763759349       14.6618069414
  O        20.3084541990        1.0396352655       14.4969391679
  O        38.0247294258       33.1859852444        2.4201617618
  O        39.2192249347       31.5838553300        1.3314284286
  O        40.6523301442       33.7693952868        2.0653504815
  O        18.2554231040        1.3762424519        0.0018449474
  O        44.6222525047       35.1005201282       14.7536534975
  O        24.2054035121        0.0000240498        1.3259071731
  O        22.7529021529        2.0579811717        2.5889595789
  O        21.6241049817        3.5957114784        1.3470582174
  O        27.4913960334       18.7505795526       13.4892607151
  O        26.7598553212       16.9370365647       14.6511277156
  O        30.6663993045       19.4104432769        0.0907967082
  O        33.5503914504       16.3298193711       13.6541707553
  O        34.2766283598       18.1831527456       14.7365001557
  O        29.5713780821       17.0671816887       14.5732698727
  O        33.5610814855       16.3397087211        2.4202976066
  O        34.3017802840       18.2422661343        1.4140688653
  O        31.6506320513       18.3146823522        2.1723383191
  O        30.3204606909       15.1559254517        0.0927798771
  O        28.5517834603       21.0396834076       14.9012131409
  O        28.5139488405       20.9513498045        1.4219459820
  O        27.5005212656       18.6092061063        2.7429258876
  O        26.6955429012       16.9322973224        1.4208325381
  O        13.1493534706       18.6929012719        2.5926021326
  O        13.9194970284       16.9161476491        1.4099995209
  O        50.5957950300       19.3501447652        0.0256450074
  O        47.6828884618       16.3271561873        2.4225142061
  O        46.9506343186       18.1755538131        1.3304995639
  O        11.0695609412       17.0156569403        1.4948216254
  O        47.6749007252       16.3359400067       13.6475193048
  O        46.9258126331       18.2358049954       14.6586562541
  O        49.5683515946       18.3177023326       13.9771576394
  O        10.3184896127       15.1002442702        0.0022165938
  O        52.6707261308       21.0278784246        1.2469299463
  O        12.1467948954       20.8911386869       14.6680927236
  O        13.1083230291       18.6136015951       13.3204334691
  O        13.9568705776       16.9867767574       14.6605649672
  O        29.9908514387       14.4347401158        2.7303404868
  O        28.0876601651       14.6551809653        1.4987481954
  O        32.1355670557       16.8638310510        0.0844439425
  O        30.9640727230       20.9476660558        2.4213820269
  O        32.9455950871       20.6041665305        1.3490317580
  O        29.5689002599       17.0792620872        1.5827738018
  O        30.8773036289       20.9544162084       13.6632459139
  O        32.8819186245       20.5888033720       14.6660787756
  O        31.6538223930       18.3100154533       14.0020559826
  O        28.2880032826       18.6788082348        0.0923567693
  O        32.4912582137       14.2122049817        1.3317607564
  O        32.4049406493       14.2176375148       14.8200568959
  O        29.9116967356       14.4353694321       13.4886982348
  O        28.0343388238       14.5920854024       14.7515442888
  O        17.8891098951        1.9665861548        2.6679232161
  O        18.9561492486        3.5271658747        1.4130919115
  O        39.1686718692       34.1388659015        0.0023423785
  O        43.2802274273       33.0589601728        2.3368402032
  O        42.0345797108       31.5064338231        1.2467549556
  O        20.3177406177        1.0368134759        1.4853026690
  O        43.2760816115       33.1825230025       13.5697344414
  O        42.0052690085       31.5841007159       14.5778582854
  O        40.5791928050       33.7752509179       13.9308467654
  O        22.3673568044        1.3845841299        0.0030048746
  O        36.6727385042       35.0997900121        1.2384044094
  O        16.4455241367        0.0642932786       14.6631838875
  O        17.9364664227        2.0434184516       13.3212500151
  O        18.9189696538        3.5931775568       14.6608041397
  O        29.7281650807       18.9853492373       12.1614505321
  O        29.7372286651       18.9747875922        4.1659556827
  O        31.2653363652       16.3407923766       12.1617689113
  O        31.2696523976       16.3428736916        4.0221761419
  O        32.1487437189       16.8480049666        9.6664839465
  O        28.9292404900       16.8390034424       10.5777243672
  O        30.3296225136       15.6065748818        6.6415738079
  O        31.4775497186       17.8884054783        6.9170814372
  O        30.9662161750       19.3381440652        9.5885308134
  O        28.7633447999       18.0142607408        6.6544813323
  O        39.4568233382       35.2438264138       11.9968637970
  O        19.1414646998        0.0045547298        3.9956527131
  O        41.9695138623       35.1727362080       12.0820032973
  O        21.6912177257       -0.0694933308        3.9011000146
  O        51.3650700395       18.6143279297       12.0003805949
  O        10.7511979508       18.7471857946        3.9099774229
  O        50.0800633059       16.4128378993       12.0865721612
  O         9.5245117078       16.4830014954        3.9962974809
 Zr         9.2963100993       16.0528298950       14.1771883196
 Zr        49.8358881850       16.0067299741        1.7516826903
 Zr        22.0734393322        0.0300958541       14.1838493490
 Zr        42.4610583660       35.1536616133        1.8061034281
 Zr        29.6050748706       19.1241847233       14.3059260809
 Zr        29.5953207331       19.1718044669        1.8945537597
 Zr        11.0375965431       19.0520570967        1.8327462022
 Zr        11.0432934970       19.1548990179       14.2461853820
 Zr        31.3472064547       16.0954524390        1.8774016537
 Zr        31.3855062617       16.0239922019       14.2758789869
 Zr        18.6013297965       -0.0011857511        1.7684363755
 Zr        18.5066240698       -0.0075294157       14.2087086403
 Zr        12.3013603074       16.3233818751       15.9852788866
 Zr        48.6154271009       18.8329328474        0.0153490293
 Zr        20.3153385756        2.4735408674       15.9852404371
 Zr        40.6437016641       32.6873169860       15.9732019667
 Zr        28.3536273825       16.3384063652        0.0839347454
 Zr        32.6303970984       18.8417832005        0.0594733511
  H        32.2838769420       18.3958335634        6.7255578558
  O        28.0877404854       19.6358132429        8.6619303633
  H        27.7793549347       19.1144183999        7.8776954051
  H        27.9025811148       19.0597034791        9.4275174457
  O        30.2455178361       20.4379245647        6.4141790622
  H        30.0884696740       19.9867569106        5.5162782355
  H        29.5571263301       21.1192106834        6.4877455529
  H        29.3230961681       16.1082822265        9.9330220923
  H        30.0561586577       15.2646883490        9.2105698343
