     577
 i =      166, E =     -4796.1386138798
  C        11.8585434743       14.0534219609       13.7364726357
  C        12.4559790169       12.8904007318       13.0182720976
  C        11.7044380998       12.1718139766       12.0762314342
  C        12.2807890955       11.1096057936       11.3838661545
  C        13.6212085910       10.7394393493       11.6119419511
  C        14.3541920959       11.4426151453       12.5858492187
  C        13.7813035436       12.5075550517       13.2773974494
  C        14.2607876271        9.6488378637       10.8385217761
  C        14.2560970812        9.6567824323        9.4168236211
  C        13.7428569345       10.7588461595        8.6628821397
  C        49.1265958935       21.2334231923       13.8746363687
  C        48.5498116761       22.4012191105       13.1475136349
  C        49.2998897743       23.0686525703       12.1666145482
  C        48.7329361305       24.1077347523       11.4333810395
  C        47.4023359138       24.5092479510       11.6619136768
  C        46.6713096434       23.8602575505       12.6752960767
  C        47.2337839062       22.8153863781       13.4046688103
  C        46.7721714681       25.5869569550       10.8646223761
  C        46.7612587997       25.5573497626        9.4428672385
  C        47.2611288162       24.4422075956        8.6994024466
  C        14.8601448640        8.5705198632        8.7035414640
  C        14.8916035545        8.5968827507       11.5151423249
  C        49.1130506587       21.2034632285        2.1505036553
  C        48.5277052545       22.3647579695        2.8776524527
  C        49.2669537597       23.0255255578        3.8705237126
  C        48.6906073994       24.0600761440        4.6019506831
  C        47.3601612717       24.4567837593        4.3637699000
  C        46.6397170015       23.8117793294        3.3403324683
  C        47.2132633031       22.7758596662        2.6085747335
  C        46.7217759438       25.5317828455        5.1547763630
  C        46.7335422507       25.5281538347        6.5764687742
  C        47.2488716467       24.4288930897        7.3328516443
  C        40.6315665184       17.1538994353        7.3342893296
  C        40.6554592475       17.1867017691        4.5253922605
  C        11.8827489517       14.0863463647        2.2905280497
  C        12.4719509844       12.9103994592        2.9945909107
  C        11.7145656599       12.1775896763        3.9211229031
  C        12.2811118445       11.0951604910        4.5896194658
  C        13.6197554288       10.7209865978        4.3574179376
  C        14.3575233806       11.4360617338        3.3960698054
  C        13.7921233160       12.5171843526        2.7232915171
  C        14.2534458871        9.6243591757        5.1279116794
  C        14.2522142646        9.6443943585        6.5497535557
  C        13.7422708637       10.7533031071        7.2968389813
  C        22.5130908312        3.2445721885       13.7484765689
  C        23.2303119748        4.3491882994       13.0503908075
  C        24.2266214497        4.0676911977       12.1038252606
  C        24.8561773480        5.1062268924       11.4225311272
  C        24.5054976775        6.4487425469       11.6676607957
  C        23.5377758258        6.7217343050       12.6516120086
  C        22.9034020722        5.6849882013       13.3312252583
  C        25.1123591693        7.5544899553       10.8914404332
  C        25.0789336503        7.5493236862        9.4700521575
  C        24.3724729376        6.5518289604        8.7256120053
  C        38.3029439490       31.9298585358       13.8442439575
  C        37.5740819378       30.8399418460       13.1350233947
  C        36.6168194419       31.1426806107       12.1547628457
  C        36.0012806743       30.1213682291       11.4365768359
  C        36.3281321770       28.7726022044       11.6777406399
  C        37.2553870629       28.4773618900       12.6946994842
  C        37.8753475647       29.4973743053       13.4113417609
  C        35.7275458222       27.6800068182       10.8808246315
  C        35.7611587529       27.6936211671        9.4596639436
  C        36.4690057065       28.6947749656        8.7226333320
  C        25.7003457335        8.6194330105        8.7489866351
  C        25.7153734018        8.6267807631       11.5609050763
  C        38.3291368273       31.9620701489        2.1615307712
  C        37.6086787130       30.8883611093        2.9038234904
  C        36.6823642356       31.1961266288        3.9119485908
  C        36.0740089503       30.1768647361        4.6419156800
  C        36.3775176493       28.8244686700        4.3870216203
  C        37.2812651344       28.5267456889        3.3487261888
  C        37.8919325944       29.5424689134        2.6202183742
  C        35.7710441268       27.7245413597        5.1711659978
  C        35.7834743292       27.7162826005        6.5931184568
  C        36.4792993364       28.7059036731        7.3561235481
  C        46.1356251379       26.6208506381        7.2865738442
  C        46.0878618540       26.5801333472        4.4786806505
  C        22.4599857846        3.2560335764        2.2634460254
  C        23.1516423975        4.3651127291        2.9877725765
  C        24.1517244913        4.0799725717        3.9310138852
  C        24.7774972277        5.1107108967        4.6280308945
  C        24.4235038911        6.4564253436        4.4044069581
  C        23.4464221676        6.7347529620        3.4297873969
  C        22.8158644313        5.7042741149        2.7334032118
  C        25.0536887499        7.5551137671        5.1781907543
  C        25.0494635998        7.5488607017        6.6010859719
  C        24.3568704187        6.5524228740        7.3589923983
  C        26.5717761439       17.8275121758       13.7822310083
  C        25.2710691293       17.8811766622       13.0489727234
  C        25.0086037479       18.9006416808       12.1203682291
  C        23.8003092395       18.9263461413       11.4267941850
  C        22.8203656667       17.9367205057       11.6437437045
  C        23.0788427061       16.9392433063       12.6018499799
  C        24.2889953214       16.9081403491       13.2921805993
  C        21.5520753980       17.9296902683       10.8744463067
  C        21.5609390865       17.9235338002        9.4529516857
  C        22.7717440998       17.8101522073        8.6994866817
  C        34.4247882269       17.2195039063       13.9093716103
  C        35.7162294000       17.1546351492       13.1674007357
  C        35.9044934107       16.2081864723       12.1485557737
  C        37.0878380203       16.1911281533       11.4151074545
  C        38.1138745259       17.1191313010       11.6802550956
  C        37.9274963960       18.0443111003       12.7254100651
  C        36.7425301261       18.0670428196       13.4562031860
  C        39.3694613419       17.1295131419       10.8959889649
  C        39.3688490017       17.1625962486        9.4743675269
  C        38.1649759477       17.3033859184        8.7146299501
  C        20.3183966189       17.9454887958        8.7390703191
  C        20.3256480742       17.9223630450       11.5519640308
  C        34.4784229490       17.2470347120        2.1844797862
  C        35.7804135665       17.1784101302        2.9094958274
  C        35.9903569660       16.2071335746        3.8997399045
  C        37.1746507080       16.1962751174        4.6309907773
  C        38.1777369343       17.1552151623        4.3902226004
  C        37.9741208449       18.1010832560        3.3682039495
  C        36.7871016978       18.1179950905        2.6408494822
  C        39.4231488285       17.1776212401        5.1875550406
  C        39.3965098092       17.1876047157        6.6085275373
  C        38.1782440073       17.3126842434        7.3480317417
  C        35.1529406176       26.6370530419        7.2971419877
  C        35.1789240457       26.6550432832        4.4882355426
  C        26.5869631747       17.7998725801        2.3379355340
  C        25.2743584474       17.8649180626        3.0432458686
  C        25.0122174239       18.8815398284        3.9736146585
  C        23.7903741566       18.9226042185        4.6397333848
  C        22.8029361006       17.9465888457        4.3988593897
  C        23.0599603376       16.9548098876        3.4350752980
  C        24.2813140622       16.9124460879        2.7665286350
  C        21.5354336360       17.9380760785        5.1653851889
  C        21.5523633748       17.9262941450        6.5865309295
  C        22.7677078759       17.8102551858        7.3334893589
  C        14.0474466344       17.8327320823        2.2886003916
  C        15.3563235561       17.8997807373        3.0036622216
  C        15.6159730385       18.9139211408        3.9383960612
  C        16.8281914907       18.9431731795        4.6246846780
  C        17.8131129290       17.9610686034        4.3975644535
  C        17.5594422777       16.9725103393        3.4284544962
  C        16.3466591763       16.9389244562        2.7435365490
  C        19.0801099663       17.9468252156        5.1685903987
  C        19.0708751339       17.9385079648        6.5904977470
  C        17.8592818249       17.8358444428        7.3441834668
  C        46.8059672210       17.2210927132        2.1662101064
  C        45.5190344663       17.1669447781        2.9168394881
  C        45.3125944901       16.1952516450        3.9082214671
  C        44.1333841783       16.1861772668        4.6485792204
  C        43.1309920979       17.1488577160        4.4191065409
  C        43.3351807634       18.1005702895        3.4017173794
  C        44.5149069951       18.1137286437        2.6625888474
  C        41.8778208929       17.1669842344        5.2070686655
  C        41.8802120367       17.1635250738        6.6288969805
  C        43.0875163101       17.2499984182        7.3909698923
  C        20.3136319001       17.9466325412        7.3048513725
  C        20.3070666713       17.9287162175        4.4922483826
  C        46.7837875164       17.2293520463       13.8864700234
  C        45.4777516251       17.1195877276       13.1772623031
  C        45.2592912133       16.1239240321       12.2130405107
  C        44.0695671003       16.0970424360       11.4895325169
  C        43.0687990582       17.0622903027       11.7139642264
  C        43.2763710470       18.0252129929       12.7191625216
  C        44.4674756888       18.0591289332       13.4370697725
  C        41.8240054318       17.0913599989       10.9148948888
  C        41.8528692174       17.1229407589        9.4943650490
  C        43.0744421090       17.2285663910        8.7572967588
  C        46.1533441872       26.6372756012        8.7211140305
  C        46.1621862464       26.6560537658       11.5307500599
  C        14.0409637665       17.8276972185       13.7000240264
  C        15.3555292530       17.8948561497       12.9982256124
  C        15.6263323106       18.9145524193       12.0738026121
  C        16.8503942927       18.9499067725       11.4103397252
  C        17.8296656532       17.9645788773       11.6464822627
  C        17.5643460238       16.9706627208       12.6057557558
  C        16.3423882942       16.9349944251       13.2729528231
  C        19.0969955692       17.9460213774       10.8791897489
  C        19.0797144757       17.9369941979        9.4577603591
  C        17.8635732368       17.8348431635        8.7103188951
  C        28.8091499895       14.0884478271        2.3923180632
  C        28.1926873834       12.9159416132        3.0794610655
  C        28.9152158175       12.1720316678        4.0241171502
  C        28.3136495352       11.0997486932        4.6780043751
  C        26.9754408725       10.7465130252        4.4104300811
  C        26.2749923553       11.4696858934        3.4284219009
  C        26.8742504297       12.5427879809        2.7734767332
  C        26.3058229820        9.6678974613        5.1729284204
  C        26.2971726317        9.6937537083        6.5940750933
  C        26.8029141977       10.8061681103        7.3389112988
  C        32.1801772072       21.2418302297        2.1521617597
  C        32.7734304862       22.4083227175        2.8691775528
  C        32.0309031306       23.0780404268        3.8536154410
  C        32.6031073688       24.1160570211        4.5818996740
  C        33.9340154612       24.5117773839        4.3471177375
  C        34.6589436300       23.8605689733        3.3312089685
  C        34.0890446032       22.8173395512        2.6043905819
  C        34.5652690642       25.5846647260        5.1480251646
  C        34.5596747312       25.5537573937        6.5696877337
  C        34.0517264784       24.4380989635        7.3079846838
  C        25.6894235171        8.6157128607        7.3142683197
  C        25.6674260241        8.6175215003        4.5007894488
  C        32.1026334680       21.2290158186       13.8791974004
  C        32.6944559641       22.3800489676       13.1352320211
  C        31.9590249561       23.0427156674       12.1406356026
  C        32.5409078335       24.0705022234       11.4022382172
  C        33.8713700177       24.4661957219       11.6420938535
  C        34.5894121636       23.8175174906       12.6647514575
  C        34.0126135006       22.7834344494       13.3973192944
  C        34.5131793341       25.5461899688       10.8576332066
  C        34.5319116525       25.5350938711        9.4359112194
  C        34.0370207841       24.4296973220        8.6746723361
  C        40.6171670326       17.1368405972        8.7684238503
  C        40.5919143648       17.1104247620       11.5774772387
  C        28.7514931980       14.0701319201       13.8116807616
  C        28.1441383301       12.9210330406       13.0758218535
  C        28.8752535385       12.2369353237       12.0927140294
  C        28.2959174425       11.1790038834       11.3959554892
  C        26.9690125675       10.7801259538       11.6551804880
  C        26.2556871781       11.4522986905       12.6654504812
  C        26.8336207881       12.5096587711       13.3651415428
  C        26.3254495472        9.6904151750       10.8827630444
  C        26.3081650894        9.7056870020        9.4607691114
  C        26.8056628579       10.8134551240        8.7047928064
  C        18.1354217418        3.1809587132        2.3221808746
  C        17.4061900737        4.2782389354        3.0209281616
  C        16.3902590336        3.9998732366        3.9481909999
  C        15.7425447155        5.0398372096        4.6117378614
  C        16.0946477279        6.3835298259        4.3722533266
  C        17.0843282064        6.6530791344        3.4088199722
  C        17.7334055040        5.6157400813        2.7437352988
  C        15.4702036164        7.4911994602        5.1352657447
  C        15.4854863607        7.4905588341        6.5569762837
  C        16.1871679952        6.4970214401        7.3101328014
  C        42.9459463730       31.8595744040        2.0780076655
  C        43.6463732873       30.7718980736        2.8219400543
  C        44.5920563055       31.0932333846        3.8078537345
  C        45.1977855035       30.0876722420        4.5554850683
  C        44.8712004119       28.7346297461        4.3407477561
  C        43.9452167733       28.4202868226        3.3276870384
  C        43.3363781689       29.4254327019        2.5796693661
  C        45.4887754766       27.6553298805        5.1439384453
  C        45.4929709715       27.6809906898        6.5656291975
  C        44.8059856749       28.6891296435        7.3122242884
  C        14.8563813945        8.5629821454        7.2693182347
  C        14.8747554642        8.5628462033        4.4566502513
  C        42.9464519892       31.9616012061       13.8038498018
  C        43.6915785100       30.8854587942       13.0902495918
  C        44.6563969967       31.1913766651       12.1181825541
  C        45.2778942536       30.1717843739       11.4004403720
  C        44.9539234516       28.8214893134       11.6379082558
  C        44.0201668990       28.5238105732       12.6484214919
  C        43.3919419720       29.5405794484       13.3606266596
  C        45.5630053552       27.7240996197       10.8526829218
  C        45.5333990111       27.7174524998        9.4313872149
  C        44.8272045066       28.7077547633        8.6784087974
  C        35.1401661703       26.6265055444        8.7317506386
  C        35.1220415549       26.6052262186       11.5413910442
  C        18.1486429403        3.2469118607       13.7014653208
  C        17.4300110391        4.3437721323       12.9921458736
  C        16.4146255107        4.0525043640       12.0687819428
  C        15.7662894109        5.0831344166       11.3934004092
  C        16.1211174016        6.4283430263       11.6159699894
  C        17.1127216040        6.7117272076       12.5729757537
  C        17.7604358731        5.6828143237       13.2527120941
  C        15.4905579334        7.5240355124       10.8435451906
  C        15.4964848350        7.5074748210        9.4224100416
  C        16.1933662732        6.5058343103        8.6757384590
  H        10.6724220080       12.4661860540       11.8989426056
  H        11.6945667989       10.5513544637       10.6570982080
  H        15.3910575106       11.1676386023       12.7679458136
  H        14.3505749163       13.0703653090       14.0132932789
  H        13.3757367059       11.6309356818        9.1961630425
  H        50.3226205808       22.7486633303       11.9819417293
  H        49.3194085296       24.6230724514       10.6758443778
  H        45.6417421704       24.1608773168       12.8582998396
  H        46.6626397043       22.2899881584       14.1665547548
  H        47.6294862977       23.5757591882        9.2410963232
  H        14.8719128895        8.5880662154       12.6034460171
  H        50.2870273367       22.7027376095        4.0653653283
  H        49.2689670537       24.5755762035        5.3654430800
  H        45.6102673542       24.1089218492        3.1513645000
  H        46.6523748204       22.2536449529        1.8370948955
  H        47.6074878288       23.5516962903        6.8019766903
  H        40.6635917032       17.1526950966        3.4376501545
  H        48.6868498378       14.0948778533       15.7948082894
  H        10.6812290096       12.4669523482        4.0988519659
  H        11.6893915923       10.5250325386        5.3025904635
  H        15.3927779708       11.1577781834        3.2097385002
  H        14.3643120228       13.0861839592        1.9943575047
  H        13.3753091531       11.6218652939        6.7582182046
  H        47.9300952878       14.2176467024        1.7160706339
  H        47.7799608796       14.3730644867       14.4897861134
  H        49.0835837440       18.5526538942        2.8725186233
  H        10.4156818534       14.1342873793        0.0037575875
  H        24.4850910058        3.0286568733       11.9120729364
  H        25.6284566385        4.8874371677       10.6882623984
  H        23.2597537600        7.7552428817       12.8475050011
  H        22.1339389961        5.8867631960       14.0724250586
  H        23.8120752833        5.7954225742        9.2672821469
  H        36.3805149790       32.1856984973       11.9577772991
  H        35.2587681002       30.3590457984       10.6780004455
  H        37.5149062344       27.4384716029       12.8875570811
  H        38.6173873996       29.2778755816       14.1753058224
  H        37.0351711318       29.4436160326        9.2688429184
  H        25.7557521851        8.6075525402       12.6485048444
  H        36.4602259685       32.2401666774        4.1209186794
  H        35.3504390462       30.4209757670        5.4165604324
  H        37.5274914799       27.4866976590        3.1452125562
  H        38.6124548199       29.3176093417        1.8376417326
  H        37.0542644397       29.4629362006        6.8306116365
  H        46.1091879954       26.5875000925        3.3906426935
  H        44.6683281373       35.1162201389       15.8088279128
  H        24.4296786785        3.0419776461        4.0992578126
  H        25.5569554004        4.8825285671        5.3518636921
  H        23.1615680259        7.7690607703        3.2479429538
  H        22.0457696960        5.9164871685        1.9953657894
  H        23.7837577702        5.7971590531        6.8290464662
  H        44.9539379350       34.3905344415        1.7003837986
  H        44.9017789823       34.2067804751       14.4855744409
  H        40.6660404834       33.2091807399        2.8582896178
  H        23.1504178545        1.9580688520        0.0106279271
  H        25.7588757677       19.6733549185       11.9656492432
  H        23.5979355611       19.7224943280       10.7133915273
  H        22.3321041773       16.1669720820       12.7749685584
  H        24.5022876641       16.1261626224       14.0172493172
  H        23.7090188692       17.6894613323        9.2347637045
  H        35.1073071075       15.4999370284       11.9358941087
  H        37.2316995132       15.4497032869       10.6322998126
  H        38.7112205906       18.7694318642       12.9346832636
  H        36.5819786045       18.7972751286       14.2459428423
  H        37.2252153159       17.4324284612        9.2439096405
  H        20.3276353234       17.9499997029       12.6401732082
  H        35.2063029516       15.4786423731        4.0926685506
  H        37.3366359046       15.4405251375        5.3964327250
  H        38.7426584792       18.8474842894        3.1781867794
  H        36.6070768001       18.8662727050        1.8725786775
  H        37.2487264841       17.4474639840        6.8024937994
  H        35.1484146717       26.6826003031        3.4006533416
  H        28.5103040307       21.0842498707       15.9672471736
  H        25.7763546147       19.6337161069        4.1555454841
  H        23.5856101126       19.7151845323        5.3562420852
  H        22.3053223153       16.1945939437        3.2440789089
  H        24.4956697603       16.1360218469        2.0360408671
  H        23.7022441731       17.6898325205        6.7935848412
  H        28.9984008738       21.7186742168        1.7727380039
  H        29.1502182667       21.7471394428       14.6063466102
  H        32.1431184827       18.5498215253        2.9702551207
  H        27.4007764816       19.0742146562        0.0925214446
  H        14.8567093554       19.6730359636        4.1125790314
  H        17.0264250213       19.7337693037        5.3452502897
  H        18.3107577919       16.2071494327        3.2449289675
  H        16.1372204183       16.1624879775        2.0115972727
  H        16.9197480590       17.7250816843        6.8107352753
  H        46.0930112081       15.4603582514        4.0912729606
  H        43.9731943204       15.4242920321        5.4082563415
  H        42.5693489378       18.8518993663        3.2205952864
  H        44.6889346553       18.8627068822        1.8936293681
  H        44.0308420981       17.3645537930        6.8646501549
  H        20.3062117462       17.9586572481        3.4040993437
  H        46.0380298300       15.3868261390       12.0308739994
  H        43.9035277120       15.3258962343       10.7404249152
  H        42.5079943206       18.7741256270       12.8993736785
  H        44.6498434493       18.8229491539       14.1889660078
  H        44.0078507654       17.3253157529        9.3041832530
  H        46.1988881759       26.6825721991       12.6182017212
  H        52.7410086202       21.0625277201        0.1997582194
  H        14.8682474900       19.6735158173       11.8935886069
  H        17.0616585232       19.7445371554       10.6980131513
  H        18.3124337932       16.2032032178       12.7934564560
  H        16.1214267888       16.1568030660       13.9994692075
  H        16.9272832405       17.7231489524        9.2489528413
  H        52.3219104318       21.6732568032       14.2895656310
  H        52.0127183769       21.7017909740        1.5005846646
  H        49.0664439325       18.6075262308       13.1992973744
  H        13.2470218779       19.0165457892       15.9703500672
  H        29.9470970025       12.4476559578        4.2303493832
  H        28.8755976102       10.5220280456        5.4087321040
  H        25.2413154588       11.2062269727        3.2138448480
  H        26.3311013050       13.1222987871        2.0310061950
  H        27.1629696790       11.6757104363        6.7974179201
  H        31.0096261805       22.7578240699        4.0439404257
  H        32.0229294514       24.6344309651        5.3420305472
  H        35.6891800768       24.1568740263        3.1447716941
  H        34.6544618943       22.2884575297        1.8405558447
  H        33.6957798644       23.5682814654        6.7631585602
  H        25.6952594419        8.5982658489        3.4127248805
  H        30.9334154021       22.7317846529       11.9548157893
  H        31.9651169489       24.5850785256       10.6360576811
  H        35.6194280539       24.1122089437       12.8547001443
  H        34.5722904886       22.2590703417       14.1683231976
  H        33.6705219069       23.5533861626        9.2021308990
  H        40.5828739249       17.0578505387       12.6645186338
  H        32.5121048357       14.1499430042        0.2469430388
  H        29.8976966741       12.5488961781       11.8919393075
  H        28.8713415472       10.6442150416       10.6434189388
  H        25.2291657629       11.1572124855       12.8730816011
  H        26.2793114705       13.0438106692       14.1331813814
  H        27.1670966047       11.6886794180        9.2367315128
  H        33.3046281208       14.2271036089       14.4529551538
  H        33.4098575015       14.4022301836        1.6044669445
  H        32.1244721290       18.5511494883       13.1859676163
  H        30.2271380951       14.1900127610        0.0688437074
  H        16.1180986131        2.9633626565        4.1344084793
  H        14.9529287484        4.8204671676        5.3272199850
  H        17.3669825518        7.6859398399        3.2159674781
  H        18.5157033313        5.8183545269        2.0161580362
  H        16.7538092276        5.7397568187        6.7766110674
  H        44.8284435819       32.1403150816        3.9819165436
  H        45.9377607171       30.3414273079        5.3113236758
  H        43.6823672334       27.3782314261        3.1577152975
  H        42.5996480125       29.1901049586        1.8151095859
  H        44.2307180471       29.4369443378        6.7738908151
  H        14.8509798445        8.5459966374        3.3684309327
  H        44.9000880178       32.2340538909       11.9268942389
  H        46.0249895311       30.4130014439       10.6473866446
  H        43.7630316249       27.4840903851       12.8398107979
  H        42.6452636016       29.3177945177       14.1188979271
  H        44.2687535275       29.4706827973        9.2129967800
  H        35.0776447273       26.6187147801       12.6287640861
  H        36.6052237733       35.1339984520        0.1857635294
  H        16.1434306624        3.0129294284       11.8992294983
  H        14.9738398948        4.8563034645       10.6834494123
  H        17.3964252316        7.7471717960       12.7496646406
  H        18.5435308717        5.8932353997       13.9772437815
  H        16.7648611989        5.7556584843        9.2142062122
  H        36.2789224653       34.4822073931       14.2681324764
  H        36.3814269242       34.2089550167        1.5047723693
  H        40.5804484035       33.2028609082       13.1484889665
  H        17.4708067300        1.9473525795       15.9690436856
  H        28.7976176736       18.9269393143        4.3497918211
  H        28.8242388720       18.5672080051       11.9142363491
  H        31.8649002925       15.8076395006       11.5557436750
  H        31.4108762614       15.4907684662        4.4859776534
  H        28.6387035327       17.1515186380        6.9513172849
  H        29.7615088430       15.0054112099        6.6809760739
  H        30.6175135833       20.1000691653       10.0387937580
  H        32.7785292364       17.6707545437        9.2117258669
  H        18.8537512545        0.8690516485        4.3404378729
  H        40.5280192145       35.2289507456       11.9469164192
  H        42.3244269604       34.4191967178       11.5851346653
  H        22.0877620613        0.6921541798        4.3566824994
  H        11.5967185919       18.7129670538        4.3878636271
  H        52.2646186925       18.4310858580       11.6723108668
  H        49.2550648608       16.4768956563       11.5793017916
  H        10.1500210366       15.7981589215        4.2978139595
  H        50.8496701398       17.6924773309       11.9490766031
  H        10.0459418237       17.3944550437        4.0570848954
  H        20.2150888410        0.0022479340        4.0470630055
  H        39.1838251689       36.1244714753       11.6813309686
 Ni        30.9847714293       17.8460560837       10.8276084277
 Ni        31.1978161879       16.3543668254        8.1573426146
 Ni        30.1441837161       18.8607202328        7.9096171516
 Ni        30.3074942455       17.3589923652        5.2511504173
  O        10.6498293424       14.3651144176       13.4806882080
  O        12.6130843871       14.6574837174       14.5787556206
  O        49.1479383924       16.8459630277       15.9845633144
  O        50.3501527977       20.9361787983       13.6431051751
  O        48.3484944265       20.5933353766       14.6608284166
  O        11.0512741458       17.0539823931       14.4954930056
  O        50.3209666615       20.8817035522        2.4119333072
  O        48.3467345541       20.5867988185        1.3322081462
  O        49.5435293731       18.2484188114        2.0734576817
  O        12.3587516965       18.6245200943        0.0047829879
  O        48.6932427567       14.1485726499       14.7461577348
  O         8.2098017927       14.2103848504        1.3276796942
  O        10.7353180695       14.5068034176        2.6694593973
  O        12.5717555118       14.5827859729        1.3336272784
  O        22.8446447416        2.0431257830       13.4820930746
  O        21.6058361344        3.5924522058       14.5842604288
  O        42.0582578893       34.1375192856       15.9739075014
  O        37.9818939183       33.1380463524       13.5674742598
  O        39.2183780192       31.5763546555       14.6618176415
  O        20.3084540266        1.0396842031       14.4969755676
  O        38.0246653058       33.1857364467        2.4203161165
  O        39.2192804941       31.5838367512        1.3314604338
  O        40.6523674659       33.7694378549        2.0653714516
  O        18.2555011763        1.3762100137        0.0018908053
  O        44.6222602302       35.1005451037       14.7536483609
  O        24.2054101253        0.0000363123        1.3258760568
  O        22.7529450714        2.0579453500        2.5890023838
  O        21.6243564083        3.5959963904        1.3475964466
  O        27.4654995996       18.6968028999       13.4820010126
  O        26.6965936054       16.9198666105       14.6671187548
  O        30.6665633436       19.4077346552        0.0784809894
  O        33.5463538303       16.3290847428       13.6534042693
  O        34.2747131769       18.1818876328       14.7363930944
  O        29.5706867578       17.0637656241       14.5775845925
  O        33.6211680355       16.3292419229        2.4143481564
  O        34.3044835877       18.2488746157        1.4104964607
  O        31.6545426183       18.3122538280        2.1657984680
  O        30.3224861222       15.1563746583        0.0880978065
  O        28.5513537936       21.0352100387       14.8963966741
  O        28.5130592529       20.9545457818        1.4178854371
  O        27.5004430064       18.6218826150        2.6802091686
  O        26.6925944712       16.9224458073        1.4126226721
  O        13.1482555223       18.6935222899        2.5916524261
  O        13.9189527298       16.9160498633        1.4096054147
  O        50.5959413500       19.3502784605        0.0257186185
  O        47.6828872652       16.3273446216        2.4225952428
  O        46.9520977304       18.1760339521        1.3294211416
  O        11.0692646496       17.0156952556        1.4947639454
  O        47.6755778503       16.3355040718       13.6480812771
  O        46.9269925372       18.2357150899       14.6594667260
  O        49.5684271467       18.3177481637       13.9770814919
  O        10.3185184259       15.1001645234        0.0021902115
  O        52.6707116831       21.0279584863        1.2469370328
  O        12.1468354536       20.8912524947       14.6681006180
  O        13.1062425815       18.6140751855       13.3206988752
  O        13.9560210241       16.9866690755       14.6598835345
  O        29.9921308723       14.4377108851        2.7302089651
  O        28.0882053053       14.6546914239        1.4979163593
  O        32.1373955003       16.8600800784        0.0772596280
  O        30.9654648716       20.9499593799        2.4185100392
  O        32.9461141808       20.6042760485        1.3463398156
  O        29.5703271324       17.0740527154        1.5807149499
  O        30.8729080786       20.9471038560       13.6570656655
  O        32.8786149405       20.5892895015       14.6636710293
  O        31.6543544460       18.3060621804       13.9996282043
  O        28.2861486757       18.6754240081        0.0809396913
  O        32.4932275066       14.2125161568        1.3304679343
  O        32.4037253838       14.2210801803       14.8175660860
  O        29.9232571127       14.4436080128       13.4848002852
  O        28.0402954189       14.5912232717       14.7452175934
  O        17.8892185306        1.9666489978        2.6679475001
  O        18.9562257290        3.5271503762        1.4130724898
  O        39.1686630833       34.1388954258        0.0023279270
  O        43.2802430253       33.0589935912        2.3368030106
  O        42.0345771048       31.5064773813        1.2467599441
  O        20.3177509684        1.0368700846        1.4852203902
  O        43.2760931769       33.1825450360       13.5697518869
  O        42.0052586536       31.5841317762       14.5778473599
  O        40.5791480963       33.7752136122       13.9308418945
  O        22.3673985743        1.3846916236        0.0030481575
  O        36.6727761458       35.0997642715        1.2384264503
  O        16.4455501830        0.0642686969       14.6631884698
  O        17.9364063995        2.0433033433       13.3213383413
  O        18.9190278399        3.5931410782       14.6607846061
  O        29.7334518587       18.8347430242       12.1418718348
  O        29.7403250279       18.9783417560        4.0892293888
  O        31.3054448021       16.4137689751       12.0764778498
  O        31.3586847666       16.3335650497        3.9959596350
  O        32.2734349201       16.9192252559        9.5748898530
  O        30.4542365600       15.6778012946        6.5814382929
  O        31.5845797931       17.9421847786        6.8291703317
  O        31.0465823315       19.3502735304        9.5899436014
  O        28.8504535920       18.0261263307        6.5778998017
  O        39.4568105446       35.2437916551       11.9968509656
  O        19.1416087155        0.0045954313        3.9956552153
  O        41.9696043851       35.1726887145       12.0820149064
  O        21.6913309937       -0.0692966222        3.9010877448
  O        51.3647818172       18.6143046063       12.0002366717
  O        10.7510867942       18.7472260233        3.9100733464
  O        50.0794985993       16.4127817569       12.0866077099
  O         9.5242661805       16.4831234324        3.9963286328
 Zr         9.2963715500       16.0527516842       14.1771809882
 Zr        49.8356185215       16.0067130877        1.7515813906
 Zr        22.0734459786        0.0301571801       14.1837924034
 Zr        42.4610958862       35.1537143318        1.8060953218
 Zr        29.5945856666       19.1105211892       14.2786521349
 Zr        29.5941993430       19.1743596379        1.8694006975
 Zr        11.0374312973       19.0520714023        1.8327933209
 Zr        11.0430073573       19.1550661837       14.2461387413
 Zr        31.3565610451       16.0941715696        1.8637014821
 Zr        31.3784869944       16.0332002568       14.2723101078
 Zr        18.6013701252       -0.0011997606        1.7684603918
 Zr        18.5066586508       -0.0075208734       14.2087311151
 Zr        12.3008699032       16.3232527486       15.9854330485
 Zr        48.6159086402       18.8331185074        0.0152260612
 Zr        20.3155679106        2.4737368884       15.9852571194
 Zr        40.6437312473       32.6873380953       15.9732028704
 Zr        28.3452910068       16.3349237850        0.0821535855
 Zr        32.6308794778       18.8456025051        0.0577603652
  H        32.4152035862       18.4269831216        6.6922633337
  O        28.0924125583       19.6377552541        8.5706640724
  H        27.8696442992       19.0649779522        7.7894185973
  H        27.7301385601       19.1858189916        9.3511375598
  O        30.2864132824       20.5148985897        6.4918340905
  H        30.1492976154       20.0887808141        5.5976546896
  H        29.5471190866       21.1374744665        6.5918740576
  H        30.5939848598       15.3716173893        9.0218988292
