     575
 i =      230, E =     -4794.9067130545
  C        11.8589175517       14.0534986620       13.7364395255
  C        12.4564570481       12.8907347567       13.0180783782
  C        11.7046877942       12.1714650389       12.0767241886
  C        12.2811610194       11.1093135382       11.3844049993
  C        13.6218862084       10.7398838395       11.6118965733
  C        14.3552143534       11.4439249120       12.5848923287
  C        13.7822382861       12.5088710573       13.2763684100
  C        14.2614079940        9.6492017240       10.8385236282
  C        14.2565448274        9.6570466247        9.4168360141
  C        13.7434647378       10.7592328752        8.6629659352
  C        49.1270493731       21.2331791629       13.8745144936
  C        48.5503470393       22.4012501565       13.1475223776
  C        49.3002348377       23.0682721449       12.1662249425
  C        48.7332942055       24.1074214244       11.4330282037
  C        47.4029489158       24.5094748570       11.6620484629
  C        46.6722356412       23.8610006674       12.6759984562
  C        47.2346736548       22.8160859404       13.4053373875
  C        46.7726150224       25.5870930959       10.8647567803
  C        46.7613390615       25.5573046623        9.4429973606
  C        47.2612190851       24.4421841915        8.6995027241
  C        14.8604128022        8.5706734465        8.7035793974
  C        14.8922097988        8.5972862943       11.5151874095
  C        49.1133421544       21.2033822705        2.1504430155
  C        48.5279547977       22.3647967019        2.8776421512
  C        49.2670444656       23.0251216479        3.8709080002
  C        48.6907533007       24.0596982902        4.6023885658
  C        47.3605349203       24.4569062573        4.3638069285
  C        46.6403416372       23.8124771319        3.3398169364
  C        47.2138538317       22.7765665708        2.6080068453
  C        46.7220583423       25.5318597558        5.1548301374
  C        46.7335169747       25.5280760261        6.5765397044
  C        47.2489178414       24.4288633697        7.3329491743
  C        40.6332918713       17.1325197244        7.3295291178
  C        40.6613025280       17.1818953836        4.5208394455
  C        11.8832110688       14.0865912684        2.2907253638
  C        12.4726806710       12.9110915544        2.9951197482
  C        11.7150928471       12.1774488616        3.9208383580
  C        12.2818250802       11.0950626440        4.5892107503
  C        13.6208495717       10.7218315339        4.3577127252
  C        14.3589912935       11.4379395566        3.3974554239
  C        13.7934069644       12.5190411010        2.7247931254
  C        14.2544058414        9.6249962182        5.1280295629
  C        14.2528529009        9.6448039332        6.5498566918
  C        13.7430151327       10.7537719461        7.2969251045
  C        22.5114003349        3.2457714805       13.7461109864
  C        23.2229473855        4.3515505556       13.0434754816
  C        24.2176162113        4.0725336093       12.0943445643
  C        24.8422398242        5.1124161117       11.4103014148
  C        24.4884364363        6.4545505603       11.6541975832
  C        23.5216059597        6.7249552610       12.6400146706
  C        22.8924673125        5.6869576695       13.3227493241
  C        25.0936042362        7.5617274339       10.8779221292
  C        25.0694304751        7.5543990097        9.4559986238
  C        24.3705994668        6.5538454383        8.7085589998
  C        38.3028685223       31.9312349672       13.8455561255
  C        37.5728260862       30.8416167588       13.1379341856
  C        36.6106621635       31.1450031014       12.1628993912
  C        35.9940683876       30.1239897944       11.4456923147
  C        36.3261858751       28.7758866298       11.6824322225
  C        37.2583418204       28.4797445157       12.6943255211
  C        37.8787172659       29.4995095145       13.4106041672
  C        35.7249806161       27.6849437728       10.8849112083
  C        35.7521942492       27.7044094819        9.4638307647
  C        36.4582946721       28.7075848322        8.7278087745
  C        25.6932499233        8.6246560513        8.7366000857
  C        25.6886722265        8.6378498234       11.5486556299
  C        38.3291561448       31.9641125920        2.1612432715
  C        37.6051128179       30.8946519171        2.9053524370
  C        36.6800728118       31.2107985558        3.9120215422
  C        36.0653584771       30.1973767490        4.6443136392
  C        36.3613772880       28.8431904401        4.3919714350
  C        37.2645650473       28.5369385720        3.3557819701
  C        37.8820024812       29.5470333869        2.6252764493
  C        35.7469490563       27.7482967381        5.1761335315
  C        35.7633270491       27.7371025355        6.5978078768
  C        36.4640807301       28.7228099155        7.3613332773
  C        46.1354984683       26.6207097218        7.2866806344
  C        46.0882738095       26.5803385923        4.4787912253
  C        22.4625725885        3.2562608219        2.2617177503
  C        23.1600130647        4.3647180229        2.9812024029
  C        24.1646821129        4.0784721584        3.9193153897
  C        24.7957452350        5.1086540867        4.6124000540
  C        24.4424564558        6.4547460721        4.3902665120
  C        23.4613214551        6.7341849112        3.4201505414
  C        22.8257017004        5.7043514261        2.7272906360
  C        25.0734661812        7.5529039036        5.1644365080
  C        25.0598976161        7.5489982302        6.5870485961
  C        24.3639566711        6.5526412982        7.3418812923
  C        26.6248367980       17.8623144822       13.7800333012
  C        25.3165989850       17.9047025133       13.0555807604
  C        25.0634371639       18.8867930052       12.0849682818
  C        23.8500382085       18.9035391851       11.3993227192
  C        22.8531337155       17.9413546655       11.6613946166
  C        23.1033782228       16.9821646955       12.6608892762
  C        24.3184731370       16.9599566910       13.3443140072
  C        21.5793700900       17.9223569643       10.8977425722
  C        21.5782086916       17.8871523772        9.4754070734
  C        22.7822432574       17.7469782708        8.7155642219
  C        34.4195313186       17.2240010494       13.9061922517
  C        35.7098665186       17.1589360801       13.1568690905
  C        35.9119570290       16.1850417638       12.1659017469
  C        37.0945695616       16.1632445668       11.4302586955
  C        38.1086306228       17.1119409562       11.6686056669
  C        37.9085219724       18.0652178618       12.6849926457
  C        36.7234525217       18.0934917230       13.4161463085
  C        39.3670341648       17.1135055587       10.8883354594
  C        39.3678688702       17.1339077701        9.4670718876
  C        38.1638039140       17.2585604985        8.7047509836
  C        20.3315750138       17.9069773063        8.7667830663
  C        20.3543200367       17.9340046412       11.5798163271
  C        34.4817915088       17.2493467107        2.1791957590
  C        35.7865482101       17.1823795407        2.9022975252
  C        36.0061155777       16.1902987480        3.8691856291
  C        37.1910352843       16.1728795865        4.5991292889
  C        38.1838224367       17.1474534934        4.3812054423
  C        37.9708531477       18.1157982548        3.3828917033
  C        36.7833252554       18.1376928161        2.6555955053
  C        39.4282096820       17.1639095639        5.1804639845
  C        39.3995614866       17.1617719771        6.6011540993
  C        38.1783673984       17.2699422451        7.3383856200
  C        35.1310103598       26.6581980432        7.3003962459
  C        35.1451003997       26.6854799272        4.4918165740
  C        26.5854718939       17.7951905332        2.3634479971
  C        25.2679547540       17.8400039951        3.0630937443
  C        25.0066057978       18.8332253462        4.0184553106
  C        23.7830740472       18.8609375314        4.6813154591
  C        22.7938495101       17.8929212609        4.4157070519
  C        23.0502750698       16.9249939494        3.4278211940
  C        24.2731541192       16.8974311115        2.7603528772
  C        21.5286799327       17.8726302055        5.1855797121
  C        21.5520859796       17.8582135563        6.6072491659
  C        22.7694487580       17.7316545712        7.3494118096
  C        14.0472193392       17.8275137402        2.2951666543
  C        15.3508438651       17.8802774002        3.0218359085
  C        15.6096959302       18.8796422377        3.9730482987
  C        16.8184738307       18.8950819904        4.6666505600
  C        17.8031821312       17.9139061091        4.4318757441
  C        17.5490047489       16.9390143886        3.4484874759
  C        16.3398766997       16.9189122692        2.7563991166
  C        19.0722755358       17.8907543092        5.2010766379
  C        19.0709527238       17.8866922698        6.6236618433
  C        17.8638946414       17.7933308864        7.3854674847
  C        46.8078485829       17.2212482235        2.1656056341
  C        45.5216126570       17.1671572432        2.9172052664
  C        45.3155001379       16.1924780282        3.9053760836
  C        44.1367102229       16.1820521419        4.6459552732
  C        43.1358555743       17.1465440901        4.4189424911
  C        43.3400972105       18.1023061019        3.4056856926
  C        44.5194539492       18.1165582733        2.6663267489
  C        41.8821873490       17.1603736634        5.2049474925
  C        41.8828113041       17.1503365265        6.6264626482
  C        43.0888234532       17.2391400302        7.3904067850
  C        20.3177818064       17.8920293310        7.3319770868
  C        20.2965782878       17.8683316414        4.5188296759
  C        46.7833359579       17.2295431195       13.8862881898
  C        45.4763526385       17.1190195451       13.1762912886
  C        45.2567827809       16.1198662176       12.2159796358
  C        44.0667863322       16.0906299041       11.4926533195
  C        43.0662521431       17.0570732009       11.7131577676
  C        43.2750778061       18.0242956839       12.7139394029
  C        44.4665808647       18.0602400638       13.4317643716
  C        41.8214079522       17.0817916813       10.9129418820
  C        41.8517920082       17.1078559080        9.4920673452
  C        43.0741929189       17.2166153053        8.7566500102
  C        46.1532503550       26.6371401377        8.7212376316
  C        46.1627567692       26.6562800713       11.5308704805
  C        14.0461938254       17.8320338038       13.7039496502
  C        15.3675920035       17.9064079228       13.0151726050
  C        15.6413591410       18.9192047619       12.0837395817
  C        16.8710021200       18.9551293536       11.4300441697
  C        17.8546560211       17.9775059460       11.6818906236
  C        17.5879965047       16.9945422353       12.6522748340
  C        16.3604522985       16.9578843241       13.3094126428
  C        19.1217283029       17.9482239520       10.9128768702
  C        19.0966748534       17.9155047301        9.4915999836
  C        17.8764691909       17.8061604057        8.7514577022
  C        28.8100248546       14.0868206125        2.3662666001
  C        28.2020523583       12.9156528551        3.0618929439
  C        28.9206183791       12.1944625849        4.0261591742
  C        28.3244666767       11.1206224727        4.6827276776
  C        26.9950358299       10.7455519162        4.4006131873
  C        26.2980451043       11.4496475379        3.4024490389
  C        26.8922085720       12.5230125842        2.7439143081
  C        26.3254794952        9.6665255227        5.1629027514
  C        26.3045719310        9.6961047048        6.5838641687
  C        26.8012885110       10.8121392457        7.3291962533
  C        32.1539304924       21.2722595839        2.1496019719
  C        32.7391891778       22.4438543305        2.8676197091
  C        31.9921514286       23.1121994661        3.8491365063
  C        32.5618732078       24.1515758994        4.5788258175
  C        33.8935483734       24.5470529606        4.3476060415
  C        34.6216979057       23.8978437246        3.3331904297
  C        34.0540897533       22.8549077637        2.6047581008
  C        34.5275874025       25.6167391745        5.1500652506
  C        34.5292808114       25.5810384598        6.5712153582
  C        34.0205263735       24.4645557891        7.3072820571
  C        25.6932168516        8.6183130956        7.3019726217
  C        25.6925943219        8.6133079874        4.4891804830
  C        32.1048263372       21.2321810574       13.8815900807
  C        32.6970222240       22.3827178403       13.1369046389
  C        31.9597630553       23.0487649845       12.1456335911
  C        32.5407308386       24.0767258955       11.4069747702
  C        33.8727024900       24.4696528231       11.6429496362
  C        34.5929280411       23.8178546811       12.6622291667
  C        34.0166940912       22.7836812864       13.3953687133
  C        34.5112623045       25.5517531593       10.8595463920
  C        34.5195199806       25.5483631826        9.4378325547
  C        34.0152304421       24.4493455752        8.6737380214
  C        40.6172945260       17.1140739577        8.7635573184
  C        40.5877614637       17.1033347558       11.5731767430
  C        28.7172080874       14.0957951770       13.7795734436
  C        28.1126265834       12.9454727809       13.0468976673
  C        28.8445893336       12.2548758788       12.0688993610
  C        28.2668420931       11.1914607035       11.3802636657
  C        26.9404722606       10.7932140454       11.6421540093
  C        26.2262995053       11.4711537896       12.6481610778
  C        26.8028250796       12.5337686842       13.3404895665
  C        26.3004507169        9.7009353888       10.8714077084
  C        26.2936695781        9.7140310891        9.4493707560
  C        26.7938913185       10.8217141911        8.6948441699
  C        18.1354827929        3.1811792402        2.3223211599
  C        17.4063347353        4.2784373142        3.0209401918
  C        16.3901979928        4.0001831679        3.9480428524
  C        15.7425633893        5.0402365563        4.6114968495
  C        16.0950105433        6.3838983254        4.3722279370
  C        17.0848794551        6.6533384199        3.4089461902
  C        17.7338806073        5.6159204176        2.7439183998
  C        15.4706631740        7.4915944194        5.1352682892
  C        15.4856862571        7.4907398677        6.5569799752
  C        16.1870813777        6.4970003930        7.3101337728
  C        42.9459827726       31.8596758955        2.0780142867
  C        43.6464373434       30.7719658400        2.8220144407
  C        44.5917558987       31.0933321495        3.8082556416
  C        45.1975218574       30.0878084350        4.5559296134
  C        44.8713753087       28.7347168153        4.3408557461
  C        43.9458247655       28.4203355384        3.3274073614
  C        43.3369506505       29.4254605718        2.5793844450
  C        45.4888835068       27.6553725179        5.1440485556
  C        45.4928552037       27.6808703460        6.5657477402
  C        44.8056745770       28.6888567921        7.3123701003
  C        14.8567205652        8.5632078278        7.2693701274
  C        14.8756842947        8.5635389783        4.4566921759
  C        42.9464904243       31.9617746161       13.8039354214
  C        43.6918611560       30.8855903923       13.0904762708
  C        44.6561153082       31.1915139077       12.1178681002
  C        45.2776892732       30.1719341446       11.4001513451
  C        44.9542847093       28.8215917096       11.6380948910
  C        44.0212087305       28.5239241067       12.6492499610
  C        43.3929144652       29.5406827869       13.3614225412
  C        45.5632505757       27.7241632006       10.8528226760
  C        45.5333221338       27.7173321333        9.4315232455
  C        44.8269149294       28.7074960718        8.6785568001
  C        35.1258218263       26.6414508678        8.7348163884
  C        35.1241809578       26.6073550937       11.5446061083
  C        18.1486807907        3.2471641368       13.7014373375
  C        17.4302236787        4.3439765016       12.9921293226
  C        16.4146700519        4.0527600268       12.0689095049
  C        15.7664142358        5.0834251791       11.3935446088
  C        16.1214449886        6.4286145555       11.6159815622
  C        17.1132305843        6.7119542121       12.5728236497
  C        17.7608507212        5.6830088677       13.2525876258
  C        15.4908989880        7.5242994648       10.8435687895
  C        15.4966104944        7.5075490456        9.4224406957
  C        16.1932831189        6.5057847058        8.6757383410
  H        10.6724447101       12.4653060284       11.8999331253
  H        11.6948863201       10.5505481232       10.6580783728
  H        15.3924466701       11.1698194064       12.7662219879
  H        14.3519444382       13.0725154289       14.0112951579
  H        13.3766710244       11.6314361740        9.1962969883
  H        50.3228080969       22.7479457844       11.9811950549
  H        49.3197160432       24.6224418377       10.6752324219
  H        45.6429704441       24.1622684852       12.8596216187
  H        46.6638859003       22.2911839186       14.1678296927
  H        47.6298905059       23.5758681134        9.2411935086
  H        14.8728582861        8.5887036101       12.6035008065
  H        50.2869627201       22.7019877765        4.0660507627
  H        49.2690959503       24.5748733053        5.3661222722
  H        45.6111639167       24.1102305440        3.1503309827
  H        46.6532784287       22.2548508275        1.8359647618
  H        47.6077895976       23.5517746516        6.8020654494
  H        40.6715331428       17.1567262931        3.4329071402
  H        48.6873066317       14.0951244071       15.7949595450
  H        10.6814643329       12.4661225703        4.0979403083
  H        11.6900574514       10.5242848796        5.3016168556
  H        15.3946756026       11.1606673157        3.2119996759
  H        14.3659705280       13.0889031294        1.9968239087
  H        13.3764660653       11.6225060006        6.7582922840
  H        47.9302698135       14.2187380434        1.7159478682
  H        47.7802259463       14.3748767496       14.4904955577
  H        49.0853866595       18.5531273684        2.8728684481
  H        10.4165578198       14.1343030971        0.0037919351
  H        24.4793864307        3.0342270324       11.9030523666
  H        25.6138412034        4.8947719991       10.6749891794
  H        23.2401190724        7.7576265561       12.8354597537
  H        22.1242054743        5.8876332719       14.0655021015
  H        23.8081253911        5.7971542986        9.2476771156
  H        36.3715080015       32.1880225536       11.9695059214
  H        35.2474323296       30.3610598859       10.6909905066
  H        37.5212456557       27.4409715211       12.8830939813
  H        38.6246335311       29.2807253314       14.1709568376
  H        37.0270424384       29.4539998452        9.2746232566
  H        25.7225279489        8.6212234906       12.6365443367
  H        36.4641105945       32.2567657424        4.1175289948
  H        35.3424449416       30.4472849173        5.4177219934
  H        37.5041704044       27.4947601759        3.1553797884
  H        38.6019720438       29.3165209708        1.8438026897
  H        37.0386228537       29.4803731742        6.8360879096
  H        46.1099806974       26.5879145779        3.3907621403
  H        44.6682537962       35.1163070499       15.8089222531
  H        24.4414164154        3.0400837007        4.0871178475
  H        25.5777684900        4.8796925092        5.3332331534
  H        23.1771872835        7.7688926576        3.2394463048
  H        22.0523502469        5.9176036729        1.9929548766
  H        23.7958522188        5.7954429311        6.8093148989
  H        44.9536640697       34.3902287897        1.7002015211
  H        44.9014652468       34.2067237593       14.4856591330
  H        40.6664165113       33.2096707845        2.8584113898
  H        23.1503619059        1.9585825199        0.0095619902
  H        25.8313166111       19.6302133083       11.8828643953
  H        23.6593830387       19.6712658867       10.6523865861
  H        22.3462238104       16.2299774177       12.8729880180
  H        24.5214163419       16.2055328693       14.1008814454
  H        23.7217807371       17.6210743410        9.2457137120
  H        35.1307206805       15.4484433413       11.9901637298
  H        37.2519744234       15.3989678592       10.6721613642
  H        38.6835869383       18.8052780783       12.8735541890
  H        36.5534619506       18.8425897316       14.1861629230
  H        37.2228928124       17.3766980160        9.2340546714
  H        20.3611559755       17.9833616070       12.6673106920
  H        35.2270021408       15.4518949792        4.0439349447
  H        37.3621708436       15.4005709906        5.3459061005
  H        38.7319679654       18.8742293097        3.2113869777
  H        36.5949898762       18.9019060164        1.9051347501
  H        37.2490359343       17.3940123466        6.7898764356
  H        35.1116716001       26.7163918601        3.4044495220
  H        28.5082898824       21.0783822724       15.9818893966
  H        25.7752319443       19.5742816376        4.2255749118
  H        23.5794433438       19.6358441000        5.4171215757
  H        22.2951738410       16.1704484417        3.2170457212
  H        24.4874660818       16.1387473462        2.0114721278
  H        23.6993476851       17.5933140764        6.8059555445
  H        28.9869328373       21.7178330301        1.7816737259
  H        29.1588045344       21.7463799004       14.6273168456
  H        32.1011345044       18.5478155475        2.9866770162
  H        27.3940188658       19.0684514549        0.0861407340
  H        14.8533555248       19.6402554278        4.1535532149
  H        17.0151743112       19.6765790604        5.3974701189
  H        18.2984707546       16.1736451710        3.2574840611
  H        16.1328683763       16.1526742087        2.0131210585
  H        16.9208136252       17.6794005142        6.8588599865
  H        46.0957268499       15.4566446838        4.0853178598
  H        43.9754102618       15.4179087232        5.4031176071
  H        42.5748644798       18.8550213605        3.2278680598
  H        44.6949995531       18.8677948588        1.8999334959
  H        44.0324005258       17.3575021992        6.8652993558
  H        20.2909190219       17.9023264168        3.4308059437
  H        46.0350958121       15.3816471284       12.0364511697
  H        43.9007107676       15.3164729696       10.7466399915
  H        42.5077425274       18.7749766086       12.8913300134
  H        44.6495176840       18.8271813875       14.1804018259
  H        44.0064515650       17.3164267277        9.3049266295
  H        46.1999450021       26.6830343225       12.6182996936
  H        52.7415013682       21.0627735948        0.1998533096
  H        14.8806242985       19.6718218519       11.8885074022
  H        17.0822753988       19.7430514285       10.7102893848
  H        18.3390568630       16.2337557966       12.8547797228
  H        16.1393598247       16.1856325471       14.0421357178
  H        16.9428282981       17.7019060746        9.2959716781
  H        52.3232798105       21.6735914193       14.2888690437
  H        52.0137885651       21.7024632179        1.5008431451
  H        49.0678518517       18.6075670959       13.1986962640
  H        13.2481672228       19.0156363140       15.9726726863
  H        29.9419700258       12.4950393122        4.2485724275
  H        28.8829200690       10.5599042171        5.4290552069
  H        25.2703549500       11.1716155211        3.1779149019
  H        26.3510604760       13.0882718101        1.9891725631
  H        27.1637949792       11.6827807079        6.7906951785
  H        30.9701884933       22.7900144597        4.0351130870
  H        31.9785166255       24.6710875127        5.3359497321
  H        35.6522046727       24.1952282573        3.1499986078
  H        34.6206861285       22.3260612944        1.8418482484
  H        33.6567369379       23.6013064442        6.7574862644
  H        25.7274165980        8.5918130447        3.4013566379
  H        30.9319366235       22.7444646204       11.9621752391
  H        31.9618889652       24.5952134303       10.6456720783
  H        35.6236109199       24.1115728320       12.8502587984
  H        34.5768627122       22.2584103441       14.1655158275
  H        33.6476417662       23.5737774961        9.2010862035
  H        40.5765309070       17.0604218968       12.6606586190
  H        32.5214781922       14.1433914806        0.2619322799
  H        29.8684746498       12.5608599012       11.8669835278
  H        28.8420724451       10.6523829385       10.6308672739
  H        25.1998228079       11.1768917870       12.8571619024
  H        26.2484085326       13.0725346025       14.1053211897
  H        27.1505994411       11.7001466216        9.2245604646
  H        33.2905502994       14.1939090612       14.4213461711
  H        33.4125126965       14.4147664796        1.6070364490
  H        32.1239324665       18.5834427866       13.1952016069
  H        30.2243773085       14.1890586655        0.0607002486
  H        16.1177307908        2.9637330210        4.1341358385
  H        14.9528072800        4.8210020704        5.3268619629
  H        17.3678980064        7.6861381748        3.2162790604
  H        18.5163589624        5.8185337984        2.0165320341
  H        16.7537022971        5.7397049982        6.7766393350
  H        44.8278132947       32.1404471148        3.9825766881
  H        45.9372427525       30.3416232050        5.3119981799
  H        43.6834375564       27.3782273986        3.1570634393
  H        42.6005435170       29.1901484629        1.8145103995
  H        44.2304260047       29.4366875128        6.7740383095
  H        14.8522872635        8.5470057299        3.3684614466
  H        44.8993813375       32.2342251996       11.9262113172
  H        46.0243719328       30.4132273144       10.6467122010
  H        43.7646954904       27.4841543402       12.8411869585
  H        42.6467999377       29.3179171060       14.1202562061
  H        44.2684721575       29.4704349230        9.2131353703
  H        35.0856976914       26.6166371246       12.6322363599
  H        36.6051169146       35.1343393322        0.1855762888
  H        16.1433279974        3.0132156706       11.8994188880
  H        14.9738579884        4.8566813103       10.6836879384
  H        17.3971675948        7.7473671276       12.7493559473
  H        18.5441120879        5.8934521930       13.9769384766
  H        16.7647520727        5.7555743994        9.2141813142
  H        36.2787606951       34.4826813112       14.2679780560
  H        36.3810862760       34.2092519897        1.5044436011
  H        40.5808238691       33.2032924997       13.1482972372
  H        17.4708316839        1.9480327222       15.9689787399
  H        28.9736047448       19.1703098620        4.4824930645
  H        29.7613233709       19.9066560947       11.6334963197
  H        32.1276688095       16.2733163000       10.7894986351
  H        31.3018940205       15.5250044119        4.4683438320
  H        28.0566566054       17.5793607477        6.6002934419
  H        31.2181433291       13.4700503876        8.0121248411
  H        31.4198401507       20.0355623451        9.3626332025
  H        33.3252419008       16.9976604021       10.0213562249
  H        28.9776304708       16.5904210905        9.2671383638
  H        18.8534033881        0.8690186701        4.3404710328
  H        40.5279907699       35.2290257097       11.9468029640
  H        42.3250165861       34.4197509872       11.5849029942
  H        22.0874728378        0.6923391232        4.3567638311
  H        11.5969681588       18.7129197667        4.3876940387
  H        52.2652860315       18.4315569500       11.6721853185
  H        49.2557797337       16.4768360346       11.5789782075
  H        10.1505955380       15.7981697938        4.2975876095
  H        50.8506494582       17.6925111022       11.9490525633
  H        10.0463928106       17.3945376786        4.0569668843
  H        20.2144976339        0.0022196240        4.0471165962
  H        39.1838839667       36.1246139207       11.6812422759
  H        32.2373393119       18.4657932364        6.8151667609
 Ni        30.6508925189       17.9391940065       10.7448668126
 Ni        30.9893314428       16.1796279817        7.7458979763
 Ni        29.8404527659       18.7026574621        7.9124919106
 Ni        30.2254291343       17.3529154963        5.1659639125
  O        10.6499867634       14.3651712557       13.4807625902
  O        12.6132099935       14.6574880854       14.5788028095
  O        49.1479738734       16.8458245965       15.9844636680
  O        50.3503183461       20.9357621250       13.6428341015
  O        48.3485756922       20.5933241592       14.6607461305
  O        11.0518628844       17.0537984900       14.4956833529
  O        50.3210160007       20.8816368755        2.4119785699
  O        48.3467718719       20.5867335410        1.3321924836
  O        49.5439402698       18.2483910124        2.0732222080
  O        12.3592752761       18.6247252773        0.0048177120
  O        48.6932187977       14.1486147173       14.7461823310
  O         8.2099301844       14.2103917126        1.3276236897
  O        10.7353772084       14.5067775489        2.6694123415
  O        12.5717995451       14.5828128487        1.3335910125
  O        22.8449881781        2.0442673050       13.4818007742
  O        21.6058233137        3.5927051468       14.5842193319
  O        42.0584996516       34.1377279275       15.9738418611
  O        37.9818621088       33.1390293501       13.5678078692
  O        39.2186105296       31.5767825556       14.6621582219
  O        20.3086426477        1.0400353961       14.4970688335
  O        38.0253287265       33.1876663448        2.4196843474
  O        39.2191140899       31.5840495074        1.3319433534
  O        40.6524328636       33.7696168873        2.0653003444
  O        18.2553508303        1.3766419448        0.0018481409
  O        44.6222092825       35.1005790298       14.7536810844
  O        24.2054724292        0.0000010842        1.3258636818
  O        22.7531655317        2.0579300017        2.5888866316
  O        21.6246053431        3.5961257883        1.3478696386
  O        27.4989361093       18.7524514629       13.4930583098
  O        26.7670176080       16.9322989677       14.6498654768
  O        30.6641566738       19.4068097768        0.0725349150
  O        33.5420548375       16.3313874403       13.6400296907
  O        34.2767622555       18.1795874104       14.7365770068
  O        29.5718945925       17.0722749714       14.5734316494
  O        33.6317386250       16.3296189058        2.4068670010
  O        34.3041039127       18.2555162738        1.4093477260
  O        31.6568525888       18.3165990482        2.1545311657
  O        30.3221184829       15.1551752919        0.0748266986
  O        28.5544813520       21.0333980442       14.9021287630
  O        28.5100357579       20.9537259129        1.4160958272
  O        27.4900818141       18.6115880104        2.7343334276
  O        26.6934942958       16.9297815865        1.4184254192
  O        13.1495477873       18.6925949479        2.5927323607
  O        13.9191971552       16.9160910641        1.4099714193
  O        50.5965768077       19.3502387564        0.0254559884
  O        47.6835358231       16.3269886481        2.4223944467
  O        46.9524653990       18.1761645281        1.3290738425
  O        11.0700977256       17.0154364459        1.4946860369
  O        47.6747212531       16.3356965201       13.6478136563
  O        46.9258683579       18.2359799541       14.6589167453
  O        49.5687897194       18.3177015006       13.9770866807
  O        10.3187572583       15.1001093355        0.0021885720
  O        52.6707829281       21.0278420310        1.2469201988
  O        12.1468478806       20.8912500766       14.6682045063
  O        13.1082459518       18.6135843173       13.3205626283
  O        13.9569654213       16.9870804051       14.6604951108
  O        29.9994755151       14.4335303645        2.6682659758
  O        28.0773113598       14.6583198093        1.4871932662
  O        32.1421245247       16.8628875875        0.0751352281
  O        30.9530477459       20.9555286342        2.4210403431
  O        32.9207244362       20.6549531754        1.3311269980
  O        29.5683819788       17.0727737535        1.5766487833
  O        30.8746082202       20.9527394617       13.6606287102
  O        32.8800328875       20.5861184062       14.6604623851
  O        31.6792096909       18.2598476773       13.9934840086
  O        28.2823798048       18.6761596205        0.0878433508
  O        32.4994590991       14.2094768571        1.3314686798
  O        32.4007622627       14.2182157853       14.8100976373
  O        29.8733006992       14.5060231021       13.4082508276
  O        28.0415607744       14.5855534498       14.7448198906
  O        17.8891872266        1.9667125174        2.6679212798
  O        18.9562542942        3.5271795627        1.4130915509
  O        39.1686784611       34.1390140905        0.0022706611
  O        43.2802861776       33.0590075221        2.3368651398
  O        42.0346324910       31.5064309547        1.2467771693
  O        20.3179200925        1.0370827087        1.4849981635
  O        43.2761039353       33.1826275561       13.5697605877
  O        42.0053037806       31.5841041406       14.5778725326
  O        40.5791139050       33.7752676491       13.9309071892
  O        22.3675474007        1.3849043698        0.0030036850
  O        36.6726922870       35.0999686134        1.2382418007
  O        16.4456174387        0.0644721003       14.6632047904
  O        17.9365132657        2.0434514488       13.3212794744
  O        18.9190720628        3.5931970511       14.6608118811
  O        29.8631857357       19.0483152546       12.0839782172
  O        29.7843421700       18.9164551133        3.9981773128
  O        31.0996101309       16.3380128158       12.0586303789
  O        31.4360920844       16.3356268307        3.9300391968
  O        32.4058433540       16.7045889904        9.9058844065
  O        29.8196874381       17.0635418568        9.1566670365
  O        30.2826855354       15.6730721064        6.1602049196
  O        31.3790449714       18.0135274754        6.8362347096
  O        30.5841909023       19.5601524317        9.4896138238
  O        28.7320042553       18.2508122002        6.4122968362
  O        39.4568465991       35.2439315990       11.9968335648
  O        19.1411746267        0.0045112223        3.9956869412
  O        41.9695901797       35.1727631594       12.0820597753
  O        21.6913116065       -0.0692297494        3.9011009188
  O        51.3653274051       18.6143719366       12.0002564243
  O        10.7512021023       18.7471211365        3.9100139564
  O        50.0799586551       16.4127573672       12.0866104806
  O         9.5245766172       16.4830272651        3.9962970624
 Zr         9.2982046726       16.0527798034       14.1773906654
 Zr        49.8376034928       16.0065919559        1.7512854276
 Zr        22.0735396650        0.0309774732       14.1837365077
 Zr        42.4611319228       35.1544089324        1.8063065027
 Zr        29.5987745711       19.1030595124       14.2956882002
 Zr        29.5744926332       19.1668523539        1.8945288752
 Zr        11.0393424599       19.0517090986        1.8329885471
 Zr        11.0451776699       19.1547049595       14.2455427884
 Zr        31.3558027667       16.0919983908        1.8631420717
 Zr        31.3883207955       16.0339594554       14.2896488862
 Zr        18.6014246927       -0.0002276595        1.7681963683
 Zr        18.5068417836       -0.0066352372       14.2088217099
 Zr        12.3037070898       16.3235513040       15.9852338723
 Zr        48.6180826228       18.8333743973        0.0148707425
 Zr        20.3159022541        2.4746791008       15.9854020172
 Zr        40.6441829755       32.6881928914       15.9733280151
 Zr        28.3403144030       16.3474040468        0.0952715967
 Zr        32.6226816595       18.8540419548        0.0774952341
  O        30.4571536685       14.0696746941        8.0807405092
  H        30.2092324476       14.3159022404        7.1219065259
  H        30.4218945711       15.6470094896       11.9140384162
