     571
 i =      164, E =     -4761.5549780321
  C        11.8587136749       14.0534764493       13.7364146488
  C        12.4562089471       12.8906153963       13.0181325072
  C        11.7044730122       12.1714870392       12.0766381678
  C        12.2809034923       11.1092927588       11.3843347065
  C        13.6215761620       10.7397007028       11.6119071603
  C        14.3548222655       11.4435254795       12.5851339315
  C        13.7818796082       12.5084871936       13.2766134580
  C        14.2611011568        9.6490168148       10.8385298762
  C        14.2562010778        9.6568311775        9.4168347593
  C        13.7429336356       10.7589131754        8.6629413022
  C        49.1269274152       21.2331152621       13.8746216964
  C        48.5502472286       22.4011803047       13.1476298408
  C        49.3001619715       23.0682200978       12.1663571133
  C        48.7332795598       24.1073999669       11.4331672200
  C        47.4028878417       24.5093919898       11.6620518546
  C        46.6721006266       23.8608481839       12.6759063937
  C        47.2344940829       22.8159059874       13.4052484647
  C        46.7726284290       25.5870689245       10.8647637033
  C        46.7615062208       25.5573827658        9.4429968220
  C        47.2613917800       24.4422775707        8.6994805692
  C        14.8601760947        8.5705191493        8.7035649197
  C        14.8921147877        8.5972082489       11.5151804228
  C        49.1132329264       21.2033917722        2.1504309663
  C        48.5278783565       22.3647927700        2.8775945236
  C        49.2671087346       23.0253653553        3.8706059107
  C        48.6908545048       24.0599469569        4.6020956476
  C        47.3605197807       24.4569377065        4.3637763391
  C        46.6401407518       23.8122067246        3.3401095318
  C        47.2136058644       22.7762594917        2.6083048711
  C        46.7221093871       25.5319240147        5.1548263818
  C        46.7337374647       25.5282161733        6.5765366660
  C        47.2491252199       24.4289840813        7.3329251192
  C        40.6177088184       17.0880441759        7.3175729189
  C        40.6324157611       17.0984851464        4.5079594214
  C        11.8830050876       14.0865131075        2.2906976465
  C        12.4722945191       12.9107936298        2.9949068721
  C        11.7147670975       12.1774657239        3.9209293939
  C        12.2814028514       11.0950190957        4.5892957115
  C        13.6203061106       10.7214504860        4.3576031254
  C        14.3583272708       11.4371998261        3.3969686715
  C        13.7928547371       12.5183571282        2.7243052765
  C        14.2538895443        9.6246695639        5.1279809693
  C        14.2523818161        9.6445120246        6.5498166390
  C        13.7424063847       10.7534054510        7.2968998755
  C        22.5168648677        3.2472297594       13.7478210757
  C        23.2403222480        4.3504527356       13.0507575997
  C        24.2395491881        4.0647926670       12.1078524071
  C        24.8774330944        5.0995016979       11.4276539005
  C        24.5340582042        6.4451570078       11.6682314734
  C        23.5628454067        6.7221988196       12.6482841942
  C        22.9201009187        5.6890986690       13.3272674845
  C        25.1509673945        7.5470847838       10.8910988053
  C        25.1223719964        7.5387939089        9.4687725634
  C        24.4131998712        6.5433177278        8.7241803176
  C        38.3018268234       31.9314035712       13.8457583475
  C        37.5685595499       30.8430290966       13.1385398640
  C        36.6022956617       31.1493889963       12.1683673804
  C        35.9806585500       30.1308106773       11.4519627210
  C        36.3119141459       28.7816165179       11.6837574149
  C        37.2486873817       28.4823953494       12.6906080737
  C        37.8736316943       29.4998271546       13.4066782310
  C        35.7062317765       27.6930959679       10.8855930860
  C        35.7287770292       27.7156422063        9.4642379595
  C        36.4320911730       28.7206067708        8.7280238525
  C        25.7498486802        8.6047435824        8.7457745216
  C        25.7576803509        8.6194578025       11.5586086818
  C        38.3283413923       31.9644204287        2.1610663593
  C        37.6007461691       30.8968473560        2.9050452995
  C        36.6714787450       31.2170726775        3.9066402091
  C        36.0511013108       30.2068120044        4.6384923229
  C        36.3458601637       28.8514293465        4.3913107942
  C        37.2540730682       28.5409750544        3.3607069223
  C        37.8768142074       29.5480691657        2.6302293923
  C        35.7258860138       27.7594375985        5.1755808967
  C        35.7381011844       27.7501227577        6.5974790498
  C        36.4370507094       28.7367256305        7.3615355137
  C        46.1357155154       26.6208429533        7.2866876213
  C        46.0882711112       26.5803660289        4.4787853340
  C        22.4640162443        3.2570172498        2.2641356009
  C        23.1640225162        4.3630028903        2.9867113870
  C        24.1648078040        4.0714281680        3.9277325789
  C        24.8004847642        5.0973634505        4.6232936374
  C        24.4570091044        6.4463178449        4.4015780956
  C        23.4789301832        6.7309028906        3.4293585407
  C        22.8384146484        5.7051780914        2.7341464584
  C        25.0973187900        7.5409490019        5.1746592854
  C        25.0950264791        7.5352616551        6.5979923060
  C        24.3983987340        6.5427853106        7.3573573043
  C        26.6197365366       17.8615196272       13.7799464012
  C        25.3128285963       17.8979986041       13.0546239451
  C        25.0493207669       18.8911150223       12.0980915800
  C        23.8367841046       18.9048033196       11.4113739929
  C        22.8500339725       17.9288985939       11.6598123288
  C        23.1096083411       16.9581639164       12.6455122458
  C        24.3247552923       16.9385917298       13.3290658902
  C        21.5766553976       17.9102095212       10.8955581370
  C        21.5772500069       17.8840166835        9.4731558653
  C        22.7828552204       17.7539962836        8.7137932670
  C        34.4270777948       17.2261004270       13.9111502945
  C        35.7172484494       17.1614959162       13.1647766440
  C        35.9302367998       16.1748373726       12.1892152179
  C        37.1112182444       16.1549756205       11.4519503158
  C        38.1143658743       17.1189812461       11.6718005694
  C        37.9058518832       18.0850950453       12.6746307547
  C        36.7216956777       18.1110660635       13.4078058157
  C        39.3693739641       17.1201474687       10.8845701092
  C        39.3629961273       17.1205371763        9.4625818038
  C        38.1546976786       17.2335076909        8.7052952181
  C        20.3311122076       17.9038437130        8.7638637309
  C        20.3515674089       17.9167045744       11.5771986545
  C        34.4399074594       17.2384581853        2.1941326851
  C        35.7426857536       17.1336843894        2.9129262816
  C        35.9453071319       16.1552477423        3.8978157480
  C        37.1356132651       16.1225507808        4.6204041536
  C        38.1525766612       17.0670835199        4.3786642109
  C        37.9569507842       18.0165631572        3.3579384394
  C        36.7661304260       18.0545227290        2.6386952713
  C        39.4010641430       17.0840893054        5.1737497612
  C        39.3792852014       17.1035632608        6.5953865350
  C        38.1625784573       17.2240767410        7.3385952783
  C        35.1051255115       26.6714307574        7.3000402117
  C        35.1251832897       26.6960353124        4.4911205103
  C        26.5892868736       17.7948502146        2.3656610584
  C        25.2717762945       17.8435925650        3.0641528937
  C        25.0003250417       18.8512254492        4.0016884933
  C        23.7766101577       18.8795870272        4.6643179467
  C        22.7959917643       17.8988641912        4.4145141592
  C        23.0614326321       16.9165308750        3.4435564151
  C        24.2849244895       16.8876226603        2.7773614319
  C        21.5299796678       17.8800562013        5.1836692171
  C        21.5532265170       17.8666622530        6.6051779554
  C        22.7710524693       17.7450423408        7.3474608283
  C        14.0472244483       17.8279893225        2.2944058256
  C        15.3517369829       17.8818920598        3.0199077698
  C        15.6099290242       18.8804861171        3.9720209546
  C        16.8191318371       18.8966053412        4.6648733097
  C        17.8048979293       17.9170306873        4.4280386812
  C        17.5515933672       16.9431792436        3.4434655495
  C        16.3418639732       16.9222949228        2.7524021007
  C        19.0738626886       17.8943691712        5.1973931816
  C        19.0719128631       17.8875302180        6.6199672188
  C        17.8645167930       17.7890305950        7.3807767426
  C        46.8027630811       17.2166225643        2.1629249091
  C        45.5099944799       17.1470621696        2.9055972890
  C        45.3085571408       16.1676424964        3.8907150069
  C        44.1252436930       16.1396944863        4.6243899398
  C        43.1117647340       17.0910019164        4.3957627861
  C        43.3101454117       18.0494481956        3.3832425744
  C        44.4944963192       18.0814295076        2.6505412071
  C        41.8577283231       17.0944077922        5.1850606835
  C        41.8640474227       17.1008064808        6.6074594854
  C        43.0730655514       17.2023454391        7.3653038384
  C        20.3182688953       17.8945054520        7.3291095806
  C        20.2986642488       17.8736804028        4.5157916136
  C        46.7837134607       17.2322153633       13.8820033181
  C        45.4802133450       17.1280372914       13.1639632763
  C        45.2588415815       16.1273166399       12.2054415140
  C        44.0703884966       16.1002488362       11.4791767194
  C        43.0723145736       17.0710054996       11.6932528916
  C        43.2845683241       18.0424861500       12.6894616801
  C        44.4740315327       18.0756522727       13.4110759527
  C        41.8243570638       17.0908378903       10.8970377410
  C        41.8470075093       17.0971440349        9.4754881423
  C        43.0652159373       17.1970098799        8.7321030618
  C        46.1534769735       26.6372634545        8.7212497297
  C        46.1627795006       26.6562616166       11.5308859837
  C        14.0452176040       17.8303174302       13.7030571390
  C        15.3657940410       17.9003931689       13.0118959078
  C        15.6420091288       18.9127871936       12.0809023177
  C        16.8713576262       18.9451164284       11.4264667848
  C        17.8519928806       17.9642305864       11.6773117204
  C        17.5825380044       16.9807787766       12.6463236346
  C        16.3552973710       16.9478061792       13.3041649511
  C        19.1195493175       17.9342264883       10.9093137845
  C        19.0958163170       17.9068709285        9.4879910369
  C        17.8762330969       17.7976344281        8.7468136139
  C        28.8148562388       14.0857870307        2.3699529762
  C        28.2177614183       12.9092203721        3.0623319984
  C        28.9429612363       12.1877176201        4.0218968109
  C        28.3534104820       11.1094382943        4.6773084683
  C        27.0237636039       10.7302969486        4.4013975699
  C        26.3208510723       11.4338229540        3.4062689228
  C        26.9082573138       12.5106147786        2.7474911310
  C        26.3590788041        9.6501189871        5.1674500298
  C        26.3504168537        9.6765433439        6.5891791118
  C        26.8564620734       10.7893884276        7.3330866011
  C        32.1482603288       21.2712772706        2.1562929789
  C        32.7268752189       22.4462324259        2.8710146835
  C        31.9767812314       23.1165636860        3.8491554060
  C        32.5428767580       24.1594313404        4.5763269944
  C        33.8743031068       24.5569943928        4.3468198433
  C        34.6050729743       23.9067071068        3.3347872545
  C        34.0412241006       22.8604815796        2.6084655278
  C        34.5054900779       25.6284794262        5.1493078789
  C        34.5044470662       25.5936512542        6.5705884375
  C        33.9973052086       24.4761487503        7.3061020693
  C        25.7398606772        8.5999816777        7.3104458590
  C        25.7164024885        8.6003057526        4.4969937962
  C        32.1007732863       21.2300498961       13.8791567836
  C        32.6924567588       22.3779623482       13.1304997674
  C        31.9515196978       23.0442859708       12.1421993147
  C        32.5278757135       24.0766269251       11.4061210387
  C        33.8591037468       24.4731279315       11.6408123772
  C        34.5835836775       23.8193945801       12.6558181268
  C        34.0117445200       22.7814299890       13.3870059645
  C        34.4933664751       25.5589856665       10.8588059468
  C        34.4978802129       25.5584826331        9.4370060889
  C        33.9941036333       24.4595875694        8.6725038283
  C        40.6089117302       17.0915800689        8.7525738012
  C        40.5936597659       17.1214248341       11.5631475626
  C        28.7738413529       14.1022935166       13.7754554418
  C        28.1777335259       12.9435629594       13.0431781154
  C        28.9151475736       12.2466588659       12.0735100660
  C        28.3428953659       11.1761786993       11.3887386777
  C        27.0158243872       10.7751814090       11.6458768692
  C        26.2967616912       11.4591285658       12.6442327696
  C        26.8674789719       12.5283214342       13.3315003967
  C        26.3742846221        9.6789993884       10.8786406986
  C        26.3600086170        9.6907493944        9.4562113674
  C        26.8593892872       10.7967639027        8.6988781894
  C        18.1356904038        3.1812760007        2.3222034736
  C        17.4064889060        4.2785192274        3.0208239964
  C        16.3903226269        4.0001717523        3.9478680728
  C        15.7426149409        5.0401385342        4.6113845203
  C        16.0949814168        6.3838287361        4.3721782873
  C        17.0849105643        6.6533654809        3.4089871976
  C        17.7340132488        5.6160242160        2.7439163888
  C        15.4704956233        7.4914467577        5.1352460600
  C        15.4855293306        7.4906077122        6.5569655907
  C        16.1870898596        6.4969885796        7.3101264831
  C        42.9459215669       31.8597022013        2.0780410117
  C        43.6464454777       30.7719867824        2.8219664764
  C        44.5917593411       31.0933868686        3.8082080007
  C        45.1975579268       30.0878733826        4.5558706759
  C        44.8714138286       28.7347698602        4.3408579249
  C        43.9458587093       28.4203672998        3.3274133933
  C        43.3369543585       29.4254705249        2.5793803177
  C        45.4889885443       27.6554583328        5.1440549382
  C        45.4930529861       27.6809978874        6.5657579157
  C        44.8059638818       28.6890349806        7.3123940810
  C        14.8564245949        8.5630111489        7.2693431181
  C        14.8753118646        8.5632692828        4.4566660448
  C        42.9464783497       31.9618583654       13.8038980593
  C        43.6918489417       30.8856484260       13.0904595180
  C        44.6562095340       31.1915700026       12.1179524897
  C        45.2778241537       30.1719948875       11.4002581241
  C        44.9543777817       28.8216469699       11.6381354459
  C        44.0212236343       28.5239701731       12.6492222145
  C        43.3929088659       29.5407295497       13.3613838319
  C        45.5633734498       27.7242209616       10.8528610188
  C        45.5335336496       27.7174389355        9.4315540802
  C        44.8272226023       28.7076639424        8.6785797826
  C        35.1013655425       26.6535393474        8.7346122255
  C        35.1078649757       26.6134722367       11.5444443136
  C        18.1489342401        3.2472440095       13.7015305033
  C        17.4304074374        4.3440825995       12.9922659600
  C        16.4148483390        4.0528068919       12.0690621113
  C        15.7665456192        5.0834273174       11.3936723984
  C        16.1215653396        6.4286335462       11.6160228195
  C        17.1134009337        6.7120226515       12.5727979444
  C        17.7611135982        5.6831227299       13.2525730266
  C        15.4908940085        7.5242559546       10.8435827713
  C        15.4965504546        7.5075027204        9.4224438946
  C        16.1933164307        6.5058071595        8.6757356027
  H        10.6722733532       12.4654287298       11.8997347959
  H        11.6946151219       10.5506389510       10.6579294246
  H        15.3919730414       11.1692253578       12.7666432307
  H        14.3514833909       13.0719059992       14.0117898121
  H        13.3759785345       11.6310609413        9.1962495213
  H        50.3227561312       22.7479368272       11.9813990380
  H        49.3197232094       24.6224509855       10.6754107386
  H        45.6427768294       24.1620014756       12.8593930601
  H        46.6636189564       22.2909702389       14.1676552987
  H        47.6299696633       23.5759062715        9.2411462830
  H        14.8727893377        8.5886167696       12.6034939021
  H        50.2871021476       22.7023730145        4.0655669041
  H        49.2692829267       24.5752878563        5.3656503335
  H        45.6108241718       24.1096751437        3.1509275090
  H        46.6527900593       22.2542230634        1.8366514982
  H        47.6079524152       23.5518830714        6.8020298113
  H        40.6377953642       17.0606740037        3.4202667188
  H        48.6871189093       14.0951382908       15.7949310412
  H        10.6812336893       12.4663686795        4.0982214688
  H        11.6896237771       10.5244877319        5.3018904131
  H        15.3938735276       11.1595882056        3.2112495913
  H        14.3653420205       13.0878972594        1.9960269113
  H        13.3756615045       11.6220628140        6.7582805794
  H        47.9302086808       14.2185722879        1.7160419778
  H        47.7799644344       14.3740139002       14.4903102447
  H        49.0833480442       18.5522009018        2.8723022426
  H        10.4161607857       14.1343862599        0.0038641609
  H        24.4946515640        3.0246199445       11.9176969070
  H        25.6514615192        4.8744285198       10.6970948351
  H        23.2882630647        7.7569742963       12.8425904438
  H        22.1489442132        5.8973839661       14.0650524548
  H        23.8488935139        5.7897183356        9.2656961865
  H        36.3636623623       32.1930913154       11.9780810157
  H        35.2307568155       30.3709117382       10.7014558477
  H        37.5115917558       27.4429487639       12.8757094898
  H        38.6226228402       29.2780616239       14.1631860699
  H        37.0003912858       29.4674822495        9.2746784023
  H        25.7939721101        8.6041778932       12.6464847715
  H        36.4563907851       32.2639395773        4.1083637118
  H        35.3247550649       30.4602586382        5.4075321203
  H        37.4932946564       27.4978989431        3.1645407865
  H        38.6001391892       29.3141060308        1.8528388820
  H        37.0105438230       29.4953376614        6.8366836513
  H        46.1098313990       26.5878625195        3.3907528637
  H        44.6684696232       35.1162920998       15.8087672434
  H        24.4359512274        3.0315730550        4.0955631405
  H        25.5800447229        4.8623281627        5.3448406820
  H        23.2010990370        7.7671932990        3.2478094502
  H        22.0682512908        5.9244283754        1.9981416542
  H        23.8221643077        5.7891987099        6.8283746294
  H        44.9540828287       34.3905870666        1.7003739560
  H        44.9014730768       34.2067545708       14.4854975152
  H        40.6664396399       33.2100218181        2.8584464199
  H        23.1511438729        1.9584661094        0.0104559956
  H        25.8079172803       19.6469426654       11.9084667649
  H        23.6378407249       19.6806490021       10.6750896372
  H        22.3602321278       16.1951569920       12.8462262721
  H        24.5353694598       16.1748057107       14.0739962370
  H        23.7226831863       17.6297599848        9.2440103417
  H        35.1578238595       15.4289569659       12.0181469354
  H        37.2728537742       15.3829552730       10.7027960609
  H        38.6719340908       18.8377008683       12.8496348177
  H        36.5451601731       18.8717324445       14.1648068219
  H        37.2149944571       17.3595164907        9.2355496917
  H        20.3577993111       17.9603184273       12.6649272083
  H        35.1522518783       15.4380401273        4.0965576301
  H        37.2893222881       15.3611881367        5.3819884285
  H        38.7353404042       18.7516303106        3.1640156662
  H        36.5955199906       18.8072355129        1.8728508059
  H        37.2287473755       17.3423418005        6.7965653152
  H        35.0955113541       26.7253379381        3.4035895729
  H        28.5028606971       21.0781523461       15.9827803556
  H        25.7601844329       19.6052161555        4.1933248860
  H        23.5654299715       19.6646689289        5.3871309604
  H        22.3128753705       16.1521383023        3.2453672007
  H        24.5058207651       16.1173758051        2.0423661104
  H        23.7019782355       17.6134818845        6.8039580723
  H        29.0060210527       21.7111454167        1.7700251138
  H        29.1658803737       21.7441356022       14.6329121670
  H        32.0737112795       18.5447111110        3.0093099883
  H        27.3869821020       19.0609008349        0.1030256989
  H        14.8525339968       19.6396817918        4.1540847611
  H        17.0151166365       19.6771739850        5.3968802823
  H        18.3018611299       16.1789594824        3.2510006351
  H        16.1351818192       16.1566716572        2.0083945642
  H        16.9220924695       17.6743127335        6.8531777919
  H        46.0968322905       15.4415419693        4.0751319502
  H        43.9717788223       15.3722401578        5.3799093458
  H        42.5364019037       18.7923986496        3.2010106394
  H        44.6623680110       18.8364571559        1.8859873634
  H        44.0142155106       17.3157377784        6.8348960219
  H        20.2936784054       17.9066230780        3.4277322300
  H        46.0337233312       15.3842466861       12.0310260878
  H        43.9027247743       15.3226326604       10.7371156524
  H        42.5203032366       18.7974086901       12.8620845142
  H        44.6576222618       18.8447242313       14.1573733844
  H        44.0003682445       17.3048541263        9.2740016766
  H        46.1998325341       26.6829311744       12.6183221018
  H        52.7412992506       21.0626488735        0.1998130335
  H        14.8835845717       19.6680545330       11.8868537483
  H        17.0849058113       19.7329785232       10.7073191132
  H        18.3310420942       16.2171213337       12.8475139857
  H        16.1318032649       16.1755899038       14.0361854043
  H        16.9425512223       17.6895426502        9.2905552144
  H        52.3226939757       21.6733118244       14.2890246483
  H        52.0134130853       21.7022014123        1.5007683484
  H        49.0676417479       18.6077550142       13.1988687219
  H        13.2478358374       19.0157878282       15.9722165185
  H        29.9631260431       12.4901010196        4.2464941288
  H        28.9185375854       10.5504839922        5.4198900822
  H        25.2932542957       11.1529952397        3.1848930415
  H        26.3610450644       13.0741499377        1.9958987588
  H        27.2167793132       11.6604175301        6.7937527212
  H        30.9551100405       22.7942564755        4.0354494387
  H        31.9573367535       24.6794978783        5.3313173502
  H        35.6352963427       24.2054431147        3.1523549366
  H        34.6109845585       22.3316302639        1.8480020104
  H        33.6363125835       23.6111676826        6.7571351279
  H        25.7428178918        8.5805784442        3.4088775312
  H        30.9249902815       22.7350277740       11.9600461389
  H        31.9463140792       24.5958268953       10.6474088064
  H        35.6141810863       24.1145957345       12.8419131547
  H        34.5754078313       22.2556487046       14.1541677272
  H        33.6307112002       23.5815589781        9.1986377819
  H        40.5876778350       17.0926354566       12.6511321294
  H        32.5093334856       14.1484900010        0.2597453616
  H        29.9394367510       12.5544556414       11.8752207477
  H        28.9242720414       10.6341502886       10.6460013659
  H        25.2699321259       11.1646278626       12.8512183196
  H        26.3064161530       13.0697157728       14.0893051292
  H        27.2208185249       11.6735719979        9.2280408229
  H        33.3024804424       14.2147511127       14.4505478825
  H        33.4088117607       14.4070671383        1.6025486344
  H        32.1189925563       18.5748529928       13.2461055021
  H        30.2305929876       14.1934491045        0.0775437126
  H        16.1179643012        2.9636840461        4.1339024102
  H        14.9528607571        4.8208083484        5.3267221741
  H        17.3679050526        7.6861895730        3.2164176017
  H        18.5166009682        5.8187243984        2.0166655829
  H        16.7538030367        5.7397703642        6.7766155792
  H        44.8278512164       32.1405008228        3.9824925591
  H        45.9373016161       30.3417373077        5.3119001859
  H        43.6834856053       27.3782510356        3.1570909392
  H        42.6005982598       29.1901114932        1.8144714609
  H        44.2307419276       29.4368975679        6.7740801554
  H        14.8518964949        8.5466846586        3.3684362891
  H        44.8995326022       32.2342736573       11.9263240124
  H        46.0245792898       30.4133103466       10.6468965488
  H        43.7646660435       27.4842031083       12.8411247596
  H        42.6467708600       29.3179475735       14.1201899276
  H        44.2688233895       29.4706349645        9.2131569083
  H        35.0732412579       26.6198802826       12.6322332711
  H        36.6053876264       35.1345503352        0.1856945376
  H        16.1435105909        3.0132528203       11.8996434743
  H        14.9739827338        4.8566354528       10.6838395162
  H        17.3973899608        7.7474370983       12.7492341572
  H        18.5444725810        5.8936265315       13.9768058440
  H        16.7649177576        5.7556899157        9.2141699986
  H        36.2794725001       34.4823782857       14.2681427677
  H        36.3823791977       34.2088060343        1.5041200450
  H        40.5809033337       33.2038503921       13.1483376632
  H        17.4715911612        1.9483812740       15.9691696582
  H        29.0571129611       19.2584718422        4.5330278274
  H        29.4573219416       19.6424108820       11.6295756515
  H        31.3358821189       15.6170764921        4.5433604427
  H        28.4769842921       17.5374762486        7.0000266503
  H        31.6261434283       19.8090904938        9.5721145023
  H        30.2044318299       15.7497338557       10.1882521058
  H        18.8557208187        0.8694490454        4.3409056045
  H        40.5278960424       35.2290504224       11.9467043407
  H        42.3255736032       34.4203668702       11.5846474714
  H        22.0879161313        0.6924075006        4.3565341648
  H        11.5972398091       18.7125218337        4.3873763701
  H        52.2651419159       18.4310854831       11.6724983122
  H        49.2547456043       16.4767354179       11.5793894050
  H        10.1503840407       15.7982097312        4.2977271664
  H        50.8501965923       17.6926636616       11.9490409278
  H        10.0461857526       17.3945741302        4.0570423956
  H        20.2174915071        0.0027076616        4.0467089367
  H        39.1839226080       36.1246385453       11.6812323358
  H        31.6870442989       18.0480426897        6.6960452114
 Ni        31.0306772399       17.9596204665       10.9895163789
 Ni        30.7753605216       16.0006622307        7.8377394802
 Ni        30.0525385732       18.7766854309        8.1601174449
 Ni        30.0551480582       17.3032596414        5.3228304626
  O        10.6498222945       14.3651616933       13.4807903364
  O        12.6130779839       14.6575001762       14.5787901211
  O        49.1477679603       16.8459021294       15.9846312221
  O        50.3503051660       20.9357378045       13.6429632224
  O        48.3485411375       20.5932700270       14.6608476330
  O        11.0515784132       17.0538247784       14.4956133794
  O        50.3209593175       20.8816071154        2.4119627736
  O        48.3467163906       20.5866647801        1.3322208769
  O        49.5436716676       18.2484214012        2.0732988420
  O        12.3590771330       18.6246636179        0.0048156299
  O        48.6931623138       14.1486956993       14.7461686882
  O         8.2098718904       14.2104380205        1.3276393575
  O        10.7352761575       14.5068002323        2.6694286180
  O        12.5717359344       14.5828000795        1.3336137415
  O        22.8456124327        2.0446328288       13.4817646211
  O        21.6077860145        3.5940436639       14.5825738729
  O        42.0585327860       34.1378773975       15.9737480584
  O        37.9817574611       33.1394085444       13.5678491787
  O        39.2180931184       31.5764287211       14.6615843927
  O        20.3088823861        1.0405368638       14.4973203514
  O        38.0253632257       33.1880998372        2.4195164723
  O        39.2186019623       31.5836573706        1.3324355262
  O        40.6524889043       33.7697018305        2.0651506299
  O        18.2559694845        1.3767981590        0.0019313146
  O        44.6222407896       35.1005929981       14.7536103127
  O        24.2054971832        0.0000153863        1.3257926487
  O        22.7533392705        2.0577108573        2.5892447735
  O        21.6258666507        3.5975376865        1.3504475864
  O        27.4909655425       18.7549040270       13.4984182481
  O        26.7659163755       16.9314328342       14.6506600671
  O        30.6555715482       19.4078663297        0.0945432108
  O        33.5476455680       16.3313268571       13.6527458154
  O        34.2741581588       18.1822574193       14.7401638429
  O        29.5712827786       17.0692785625       14.5758081491
  O        33.5537518992       16.3404367048        2.4230482409
  O        34.2992244728       18.2425282705        1.4158235891
  O        31.6514693791       18.3184327542        2.1636959814
  O        30.3231230583       15.1603474563        0.0867135715
  O        28.5525861026       21.0370627638       14.9047543373
  O        28.5119540555       20.9498289465        1.4209026893
  O        27.4963302498       18.6122602719        2.7377120078
  O        26.6953200815       16.9304665229        1.4206261833
  O        13.1495858338       18.6926414399        2.5927401240
  O        13.9192996509       16.9160481350        1.4099262924
  O        50.5960479196       19.3501169372        0.0256279145
  O        47.6828122374       16.3270518863        2.4225335952
  O        46.9501034733       18.1754906293        1.3308102920
  O        11.0697226577       17.0155889324        1.4947567337
  O        47.6741976747       16.3360614359       13.6473712689
  O        46.9254780387       18.2360532175       14.6585508324
  O        49.5685771200       18.3176840377       13.9772027177
  O        10.3186033560       15.1002219788        0.0022028570
  O        52.6707699801       21.0278720157        1.2469296532
  O        12.1468289169       20.8911793195       14.6681622826
  O        13.1084741760       18.6134661283       13.3204778840
  O        13.9566880892       16.9867489453       14.6607188765
  O        30.0061312954       14.4405137721        2.6715219627
  O        28.0812403049       14.6568368042        1.4916584882
  O        32.1332043407       16.8615270068        0.0936567998
  O        30.9458672698       20.9482179439        2.4287669948
  O        32.9156417083       20.6577313378        1.3351205301
  O        29.5675719774       17.0745169889        1.5771578162
  O        30.8701954009       20.9505406280       13.6613270169
  O        32.8780144485       20.5899546564       14.6633459322
  O        31.6576224205       18.3099180478       14.0597386375
  O        28.2772782485       18.6729392623        0.0956203953
  O        32.4919513197       14.2140482862        1.3340642212
  O        32.4023908959       14.2215334786       14.8161194538
  O        29.9340379881       14.5089873250       13.4211125324
  O        28.0614231636       14.5883229832       14.7305639353
  O        17.8893073392        1.9668148649        2.6678396305
  O        18.9564664437        3.5272701322        1.4130058412
  O        39.1686870189       34.1390009640        0.0023601336
  O        43.2802712787       33.0590123711        2.3368478765
  O        42.0345523024       31.5064532769        1.2467604812
  O        20.3184138665        1.0375867947        1.4845781514
  O        43.2760430128       33.1826942987       13.5697615565
  O        42.0052648804       31.5841758021       14.5778801731
  O        40.5793139102       33.7756593148       13.9310796464
  O        22.3678428644        1.3854032910        0.0029356999
  O        36.6728194164       35.1000154572        1.2383198737
  O        16.4457169803        0.0646211571       14.6632078230
  O        17.9365553621        2.0435634582       13.3213410227
  O        18.9194160867        3.5932115626       14.6608542366
  O        29.7864411511       18.8957709496       12.1590343710
  O        29.8186796893       18.8353687204        4.0939981370
  O        31.3541708277       16.4706237911       12.0920427211
  O        31.2625471614       16.4748748415        4.0772790997
  O        30.4279882047       16.4888684332        9.5851568099
  O        30.1628520154       15.7696583841        6.2353527333
  O        31.5684605515       17.8762589639        7.6607128877
  O        30.7540364245       19.4122451342        9.7480117917
  O        29.0619468200       18.2478218941        6.6644922171
  O        39.4568244180       35.2439560678       11.9968791980
  O        19.1434789480        0.0052426758        3.9954263791
  O        41.9695974276       35.1729240685       12.0820927356
  O        21.6915850394       -0.0692684378        3.9011600056
  O        51.3652035798       18.6143156065       12.0003312477
  O        10.7513272265       18.7471010720        3.9100109814
  O        50.0791480300       16.4128024838       12.0867201839
  O         9.5244546431       16.4830870618        3.9963240440
 Zr         9.2972626973       16.0528010784       14.1772529954
 Zr        49.8368611709       16.0066985906        1.7516058620
 Zr        22.0737675270        0.0316520145       14.1834017654
 Zr        42.4614140744       35.1546577249        1.8060867416
 Zr        29.5829987214       19.1090255562       14.3139209129
 Zr        29.5762685744       19.1565165054        1.9059993314
 Zr        11.0386527298       19.0518535071        1.8329384894
 Zr        11.0443661585       19.1547114145       14.2459856825
 Zr        31.3361513629       16.1049898008        1.8857264350
 Zr        31.3880088558       16.0463395818       14.3089010746
 Zr        18.6020739501        0.0003855158        1.7684139480
 Zr        18.5071734926       -0.0061805349       14.2091342512
 Zr        12.3027331667       16.3234041511       15.9853198890
 Zr        48.6166064032       18.8329394559        0.0154402549
 Zr        20.3174070151        2.4759368856       15.9853807738
 Zr        40.6443611107       32.6884161688       15.9732615666
 Zr        28.3330894945       16.3340120723        0.0815940120
 Zr        32.6188931925       18.8639739943        0.0792199817
  H        32.1674219263       16.0797894833       11.7271706989
  H        32.3496863478       17.7772007985       10.4293824603
  H        30.5299641391       14.5934272597        8.0882389663
