     572
 i =      170, E =     -4777.6658758464
  C        11.8557122406       14.0506954684       13.7365909070
  C        12.4508002036       12.8869024411       13.0173409048
  C        11.6962282803       12.1665954896       12.0790945963
  C        12.2703556563       11.1030348289       11.3868628585
  C        13.6116256322       10.7336621871       11.6110520695
  C        14.3479520303       11.4390157396       12.5808495507
  C        13.7771274219       12.5050138741       13.2724598925
  C        14.2491040747        9.6417994051       10.8376142438
  C        14.2409386297        9.6475405459        9.4159135437
  C        13.7254168184       10.7484295219        8.6618783520
  C        49.1258441078       21.2338170411       13.8736232011
  C        48.5471789623       22.4003912331       13.1445734190
  C        49.2947507028       23.0660318637       12.1604837560
  C        48.7259741594       24.1032905527       11.4255845082
  C        47.3958403735       24.5056371949       11.6556854371
  C        46.6674661978       23.8584773410       12.6723163957
  C        47.2315666514       22.8152242837       13.4030217737
  C        46.7626930610       25.5822137441       10.8581547973
  C        46.7455564819       25.5508324642        9.4363731680
  C        47.2465470897       24.4368003704        8.6920473207
  C        14.8445054890        8.5609356950        8.7026898083
  C        14.8826247768        8.5915001466       11.5142235344
  C        49.1108070776       21.2039056860        2.1500058786
  C        48.5201555719       22.3643985775        2.8749227136
  C        49.2548203998       23.0326375442        3.8660455237
  C        48.6709488187       24.0646682117        4.5954255744
  C        47.3372949869       24.4510126328        4.3573562633
  C        46.6216274102       23.7990440819        3.3350899617
  C        47.2028609926       22.7662063523        2.6051221322
  C        46.6906786857       25.5212808674        5.1482956400
  C        46.7066884783       25.5187246791        6.5700002649
  C        47.2297496161       24.4224694501        7.3256046118
  C        40.6289131638       17.1418345364        7.3346043230
  C        40.6542675281       17.1879991835        4.5256706640
  C        11.8810350001       14.0844270377        2.2911749800
  C        12.4669096353       12.9065187558        2.9941893633
  C        11.7058106382       12.1733941347        3.9174854193
  C        12.2687494769       11.0888376513        4.5854716421
  C        13.6074430603       10.7131657152        4.3561917460
  C        14.3489146555       11.4286161508        3.3979386268
  C        13.7871160056       12.5117954991        2.7254587695
  C        14.2381752095        9.6150511989        5.1269315281
  C        14.2351225048        9.6340925061        6.5488081096
  C        13.7240556439       10.7425003453        7.2958398639
  C        22.5119174223        3.2448342788       13.7477796336
  C        23.2254577405        4.3500932852       13.0480714866
  C        24.2217337053        4.0705922389       12.1009075282
  C        24.8471527894        5.1104337074       11.4179543950
  C        24.4917501777        6.4520214790       11.6615814305
  C        23.5240928438        6.7229828034       12.6462214889
  C        22.8942322558        5.6850806845       13.3278377937
  C        25.0943646447        7.5593066578       10.8848953876
  C        25.0669072876        7.5514281755        9.4631801537
  C        24.3703965674        6.5484530741        8.7167074411
  C        38.3015265226       31.9319924471       13.8442256725
  C        37.5710567549       30.8425957870       13.1362552974
  C        36.6028917494       31.1464909680       12.1673785805
  C        35.9842673189       30.1260318182       11.4510798974
  C        36.3210971803       28.7781638700       11.6821522916
  C        37.2602101754       28.4812670571       12.6872878904
  C        37.8818798628       29.5005174066       13.4032731197
  C        35.7175147110       27.6878783519       10.8853889863
  C        35.7378954252       27.7103590918        9.4641736383
  C        36.4383581987       28.7164104434        8.7266416400
  C        25.6840974459        8.6244154076        8.7427646002
  C        25.6881368316        8.6363556839       11.5552686813
  C        38.3262415628       31.9640432200        2.1610190627
  C        37.5993431117       30.8952659387        2.9056868204
  C        36.6681273729       31.2130200889        3.9062084227
  C        36.0488825110       30.2011190455        4.6372462362
  C        36.3466826529       28.8462667171        4.3904965554
  C        37.2569879938       28.5381679048        3.3610710396
  C        37.8784527466       29.5469233992        2.6314917436
  C        35.7289440453       27.7527662522        5.1753743664
  C        35.7432063208       27.7439040760        6.5973802082
  C        36.4414113897       28.7320921834        7.3601450091
  C        46.1060509170       26.6091704115        7.2810400200
  C        46.0462147590       26.5641776334        4.4730857411
  C        22.4618542005        3.2554987331        2.2621721981
  C        23.1577609988        4.3633739164        2.9833331283
  C        24.1609990318        4.0765074261        3.9227629537
  C        24.7903303941        5.1061895471        4.6180526914
  C        24.4364472314        6.4521587874        4.3965160824
  C        23.4568396051        6.7322366610        3.4250119212
  C        22.8229364829        5.7029475654        2.7300676484
  C        25.0652287470        7.5507763666        5.1713479060
  C        25.0522963202        7.5467095816        6.5940175741
  C        24.3616438709        6.5475200472        7.3499332648
  C        26.5722146120       17.8243560624       13.7894963133
  C        25.2679438995       17.8666057073       13.0610602212
  C        25.0196241594       18.8464870741       12.0879270266
  C        23.8089365671       18.8597489976       11.3982846616
  C        22.8148992278       17.8946238066       11.6588184627
  C        23.0606109749       16.9373882455       12.6607139883
  C        24.2717386533       16.9202173894       13.3494917687
  C        21.5466017483       17.8706948707       10.8905266134
  C        21.5532144561       17.8448326216        9.4687355404
  C        22.7615126083       17.7105937636        8.7146566336
  C        34.4198050419       17.2177657676       13.9130164023
  C        35.7130173717       17.1516416178       13.1712608904
  C        35.9065505149       16.1912020979       12.1662388358
  C        37.0893888888       16.1704056696       11.4316057636
  C        38.1103359583       17.1083352498       11.6817940779
  C        37.9192394039       18.0469705614       12.7140793355
  C        36.7347257650       18.0732515754       13.4462026555
  C        39.3661437526       17.1150900210       10.8967065101
  C        39.3655834087       17.1418723286        9.4748986481
  C        38.1610074778       17.2719737314        8.7143357951
  C        20.3103550835       17.8690426843        8.7552536787
  C        20.3197835038       17.8703488802       11.5682903306
  C        34.4765521823       17.2494095704        2.1817612024
  C        35.7792464752       17.1837886647        2.9068658568
  C        35.9943105855       16.2007570398        3.8844326602
  C        37.1787504116       16.1862975988        4.6153673770
  C        38.1763081681       17.1543661218        4.3885846905
  C        37.9673755796       18.1129265070        3.3796238628
  C        36.7806610994       18.1323355209        2.6511188108
  C        39.4215164655       17.1727374633        5.1870031087
  C        39.3941409842       17.1730586090        6.6080556340
  C        38.1746626173       17.2850158827        7.3477237516
  C        35.1127114878       26.6647516777        7.3015574253
  C        35.1291096999       26.6875697455        4.4925465548
  C        26.5853640817       17.7890508639        2.3718031432
  C        25.2702712289       17.8388179314        3.0708899401
  C        25.0102639855       18.8281054321        4.0309193042
  C        23.7851956228       18.8557526816        4.6908037790
  C        22.7937099968       17.8926634228        4.4165260370
  C        23.0490584517       16.9292830550        3.4238115803
  C        24.2732207303       16.9007230674        2.7601014877
  C        21.5257781055       17.8705117925        5.1809702408
  C        21.5425812199       17.8427555921        6.6022045687
  C        22.7562936241       17.7076844469        7.3485466689
  C        14.0458786515       17.8287170754        2.2906103618
  C        15.3516842125       17.8849321420        3.0111997930
  C        15.6111557508       18.8846200021        3.9614726281
  C        16.8211983096       18.9000727017        4.6521778108
  C        17.8045298115       17.9188907448        4.4135346284
  C        17.5509267323       16.9453087530        3.4292632339
  C        16.3402558771       16.9248648127        2.7407451518
  C        19.0705848852       17.8905719462        5.1852616231
  C        19.0614522032       17.8714285620        6.6072473961
  C        17.8501377634       17.7706480851        7.3616990395
  C        46.8057087706       17.2217968528        2.1664749758
  C        45.5186413426       17.1682857753        2.9179921243
  C        45.3112205000       16.1953830494        3.9079424402
  C        44.1319579029       16.1862179214        4.6483747348
  C        43.1302900128       17.1500434572        4.4204546719
  C        43.3357201088       18.1035612317        3.4050117446
  C        44.5155166680       18.1166620192        2.6657690677
  C        41.8764817576       17.1661876017        5.2078526803
  C        41.8778891590       17.1575943315        6.6297232536
  C        43.0847605590       17.2449428966        7.3923989116
  C        20.3045210684       17.8692239163        7.3210547401
  C        20.2972460294       17.8739773778        4.5080739182
  C        46.7832173856       17.2293790236       13.8864956239
  C        45.4765759136       17.1187772561       13.1770627711
  C        45.2577124975       16.1210526718       12.2150880682
  C        44.0675900738       16.0921794055       11.4920946435
  C        43.0664224028       17.0573999932       11.7148444893
  C        43.2745537797       18.0228381882       12.7175079685
  C        44.4661426339       18.0586478217       13.4348836662
  C        41.8210431992       17.0831694241       10.9159396417
  C        41.8497486991       17.1126818721        9.4952732848
  C        43.0713298335       17.2214684183        8.7586334534
  C        46.1310649415       26.6279749479        8.7155937707
  C        46.1549582637       26.6523511509       11.5250055809
  C        14.0265698611       17.7942996683       13.7014947980
  C        15.3448102687       17.8516007133       13.0071063959
  C        15.6243018196       18.8709963828       12.0843971819
  C        16.8495773777       18.8998666725       11.4236351384
  C        17.8232215941       17.9096304232       11.6622511764
  C        17.5505806289       16.9172630368       12.6212182260
  C        16.3260537199       16.8866135402       13.2843693858
  C        19.0910867983       17.8854719876       10.8959432595
  C        19.0722524202       17.8684508255        9.4746142797
  C        17.8554665981       17.7682313421        8.7280098732
  C        28.8062005120       14.0912718831        2.3973420657
  C        28.1942322373       12.9192687646        3.0837675219
  C        28.8980413272       12.2170975507        4.0727660434
  C        28.3007481291       11.1390141275        4.7197239585
  C        26.9832546040       10.7453660939        4.4088103245
  C        26.3016336535       11.4312224467        3.3872759326
  C        26.8984727732       12.5061325721        2.7342954232
  C        26.3107667562        9.6680961982        5.1689457015
  C        26.2853160307        9.7004165979        6.5900295191
  C        26.7712055525       10.8215576064        7.3351509817
  C        32.1517923236       21.2651643297        2.1518806890
  C        32.7341615025       22.4343115798        2.8764121799
  C        31.9833585468       23.1044843267        3.8548452225
  C        32.5501743512       24.1466200927        4.5834899944
  C        33.8818302502       24.5447620701        4.3535375864
  C        34.6131081901       23.8928017135        3.3432291879
  C        34.0492310585       22.8465330961        2.6166112103
  C        34.5119700204       25.6194516543        5.1526749696
  C        34.5122816446       25.5860992548        6.5736798568
  C        34.0059797453       24.4694782975        7.3111714391
  C        25.6811923996        8.6189954247        7.3083308092
  C        25.6826039313        8.6117468995        4.4957374414
  C        32.1023484832       21.2303765454       13.8845275501
  C        32.6980866776       22.3780428327       13.1364174057
  C        31.9563478112       23.0535145885       12.1547943663
  C        32.5363397517       24.0825153138       11.4167714952
  C        33.8719681378       24.4678357118       11.6443742375
  C        34.5977228065       23.8058206958       12.6529041345
  C        34.0223121937       22.7699811943       13.3848851655
  C        34.5072476649       25.5528262982       10.8618343084
  C        34.5089644441       25.5526144916        9.4402765342
  C        34.0033027732       24.4535104951        8.6774043569
  C        40.6141326875       17.1218398065        8.7689406648
  C        40.5886905033       17.1018327585       11.5783269097
  C        28.7203780872       14.0967549773       13.7755750299
  C        28.1138221554       12.9466830533       13.0443324330
  C        28.8472675798       12.2458000503       12.0745481259
  C        28.2660277220       11.1834056731       11.3867980775
  C        26.9357960956       10.7948232617       11.6441285539
  C        26.2204574831       11.4820323135       12.6426241084
  C        26.7996214847       12.5449887140       13.3322364175
  C        26.2941836285        9.7012298022       10.8764954329
  C        26.2808946488        9.7157835216        9.4549617791
  C        26.7686108443       10.8287103045        8.7007490259
  C        18.1344273797        3.1810476578        2.3217723430
  C        17.4022397944        4.2765508422        3.0195107790
  C        16.3847262999        3.9950443474        3.9441732226
  C        15.7337212137        5.0328238154        4.6076987648
  C        16.0841445162        6.3773923606        4.3709411684
  C        17.0753564978        6.6501350355        3.4099342071
  C        17.7277754220        5.6149421640        2.7447408888
  C        15.4563056322        7.4828364938        5.1342643815
  C        15.4699417996        7.4811044728        6.5560202436
  C        16.1721938991        6.4879770523        7.3091656454
  C        42.9080995804       31.8535789787        2.0783837963
  C        43.5990523305       30.7581358388        2.8207823566
  C        44.5523637582       31.0747480784        3.8013890601
  C        45.1558075297       30.0675945062        4.5482229325
  C        44.8215501981       28.7157723706        4.3377089959
  C        43.8875808798       28.4053127240        3.3306220159
  C        43.2793409222       29.4128351197        2.5841274931
  C        45.4435026520       27.6368952429        5.1392761712
  C        45.4552687173       27.6652592827        6.5611361458
  C        44.7699129274       28.6731281408        7.3096771499
  C        14.8396880501        8.5528514010        7.2684306118
  C        14.8609727528        8.5544777309        4.4556877141
  C        42.9458998678       31.9613850030       13.8039294475
  C        43.6893482014       30.8843045679       13.0891680236
  C        44.6485720962       31.1883778747       12.1109725752
  C        45.2666875324       30.1674181964       11.3919908526
  C        44.9453278804       28.8173249948       11.6343592645
  C        44.0177909464       28.5216002633       12.6511948797
  C        43.3926096802       29.5396881331       13.3642948841
  C        45.5507840253       27.7184154401       10.8480638236
  C        45.5125013244       27.7082081214        9.4269312582
  C        44.7997419115       28.6952357535        8.6757586320
  C        35.1107975247       26.6473283462        8.7360587138
  C        35.1221820868       26.6076562574       11.5460830100
  C        18.1479042004        3.2473197883       13.7015748539
  C        17.4274642604        4.3428466531       12.9925132692
  C        16.4109101413        4.0493265263       12.0710511537
  C        15.7603456929        5.0783018922       11.3954442068
  C        16.1141336116        6.4242129199       11.6155505920
  C        17.1069532756        6.7098968773       12.5706907495
  C        17.7568162711        5.6825937663       13.2508905201
  C        15.4806497917        7.5180129086       10.8428199408
  C        15.4831359466        7.4992575295        9.4216477911
  C        16.1794204199        6.4973722971        8.6747897703
  H        10.6635824589       12.4605320348       11.9047921981
  H        11.6817659617       10.5432274602       10.6632053614
  H        15.3856792924       11.1650133542       12.7594869869
  H        14.3487282110       13.0695948848       14.0052197955
  H        13.3578942279       11.6204024306        9.1950744144
  H        50.3173124223       22.7461707207       11.9744747702
  H        49.3112852086       24.6167126044       10.6658305804
  H        45.6383436834       24.1594511489       12.8572507872
  H        46.6619072145       22.2917594655       14.1673664293
  H        47.6203395202       23.5723195528        9.2331941628
  H        14.8660440084        8.5846039420       12.6025931795
  H        50.2772399643       22.7176468912        4.0616381530
  H        49.2457980719       24.5858347115        5.3577358545
  H        45.5899418000       24.0880626937        3.1456925401
  H        46.6457463397       22.2384533322        1.8347186655
  H        47.5906139817       23.5465618415        6.7941197163
  H        40.6629680903       17.1602477356        3.4377518072
  H        48.6866374049       14.0950367907       15.7948655836
  H        10.6725291249       12.4642885806        4.0929538003
  H        11.6742812961       10.5184438840        5.2959358229
  H        15.3843449603       11.1492560849        3.2142284570
  H        14.3622383186       13.0811909551        1.9991295022
  H        13.3561426689       11.6106708482        6.7572599748
  H        47.9300516585       14.2161317838        1.7163213686
  H        47.7797926959       14.3734417463       14.4901737300
  H        49.0826392921       18.5542548480        2.8721564726
  H        10.4136674213       14.1334601596        0.0045014640
  H        24.4836197071        3.0322160042       11.9102723588
  H        25.6199513978        4.8935311286       10.6836932239
  H        23.2425020189        7.7557591618       12.8408476334
  H        22.1248935640        5.8850895476       14.0696046476
  H        23.8118997083        5.7892750745        9.2564179079
  H        36.3603190097       32.1894991845       11.9782067666
  H        35.2324500515       30.3634807872       10.7016477548
  H        37.5271357100       27.4426426277       12.8712000939
  H        38.6326191167       29.2814735316       14.1588032906
  H        37.0059640500       29.4645035104        9.2723723946
  H        25.7250049099        8.6189555087       12.6430377372
  H        36.4503455999       32.2593442491        4.1080229160
  H        35.3211744550       30.4532077068        5.4054683760
  H        37.4992304119       27.4957493281        3.1650359830
  H        38.6034869757       29.3145963079        1.8551806010
  H        37.0126266846       29.4916237661        6.8341400732
  H        46.0635968732       26.5703545677        3.3849465760
  H        44.6681006961       35.1158953469       15.8084649387
  H        24.4381178052        3.0380857833        4.0896446665
  H        25.5717369719        4.8770252122        5.3394845119
  H        23.1727375204        7.7670704715        3.2450193283
  H        22.0507011056        5.9164143233        1.9946410528
  H        23.7958316420        5.7879818394        6.8182245828
  H        44.9546676361       34.3891490167        1.6992912725
  H        44.9020985728       34.2069047564       14.4852764244
  H        40.6610921270       33.2088232800        2.8556034222
  H        23.1504904206        1.9579826728        0.0106217420
  H        25.7890492924       19.5888157338       11.8872804038
  H        23.6181832505       19.6252733630       10.6491939001
  H        22.3038719592       16.1838249000       12.8691976686
  H        24.4746825669       16.1686693897       14.1087376888
  H        23.6980353659       17.5792507731        9.2486793576
  H        35.1127422743       15.4742204092       11.9693595558
  H        37.2382026961       15.4176603969       10.6604817162
  H        38.6995385846       18.7787260507       12.9129262963
  H        36.5715594847       18.8126156815       14.2269571700
  H        37.2203067790       17.3912848852        9.2440818646
  H        20.3219635409       17.9116324322       12.6560693220
  H        35.2135942875       15.4657291951        4.0663474300
  H        37.3455888905       15.4204534173        5.3697178557
  H        38.7319396838       18.8659553989        3.1998999109
  H        36.5974618055       18.8888396249        1.8916544513
  H        37.2445099472       17.4125350563        6.8015526724
  H        35.0981948903       26.7158066819        3.4050040804
  H        28.5027084760       21.0825571240       15.9807476904
  H        25.7788176104       19.5671481824        4.2449660807
  H        23.5824801559       19.6267149925        5.4309515833
  H        22.2916832778       16.1788320312        3.2068714193
  H        24.4870119049       16.1451455917        2.0080244229
  H        23.6890850768       17.5732580415        6.8090118611
  H        28.9812686016       21.7167297041        1.7887585565
  H        29.1681128223       21.7342756083       14.6226746323
  H        32.1236950103       18.5393231352        2.9837188038
  H        27.3379118971       19.0557183515        0.0962751971
  H        14.8538317210       19.6436877981        4.1441895839
  H        17.0195742340       19.6797338022        5.3844908287
  H        18.3009773615       16.1809567983        3.2366385076
  H        16.1308141043       16.1594227457        1.9973937999
  H        16.9097755114       17.6638830513        6.8288606104
  H        46.0909139688       15.4594169931        4.0898410239
  H        43.9711426767       15.4230568549        5.4066494067
  H        42.5708072566       18.8561156940        3.2250707374
  H        44.6904109597       18.8668091477        1.8981251736
  H        44.0279869287       17.3623825965        6.8665097293
  H        20.2961555022       17.9177496038        3.4203971507
  H        46.0365880558       15.3837910704       12.0341166831
  H        43.9016550948       15.3192058317       10.7448305122
  H        42.5062171659       18.7720786961       12.8965613586
  H        44.6487041216       18.8242791551       14.1849230982
  H        44.0042926121       17.3196859797        9.3060071838
  H        46.1973034419       26.6811164924       12.6122037905
  H        52.7414030303       21.0623908952        0.1996365757
  H        14.8710481350       19.6343427673       11.9030076510
  H        17.0667278798       19.6929380160       10.7113488794
  H        18.2949849343       16.1468156222       12.8113445433
  H        16.0991613259       16.1084021269       14.0090804524
  H        16.9190980410       17.6594360943        9.2671098749
  H        52.3222080784       21.6723522303       14.2885251175
  H        52.0136997974       21.7029289319        1.5000718514
  H        49.0662424305       18.6092859716       13.1994749429
  H        13.2471104906       19.0165759265       15.9706180545
  H        29.9054594563       12.5373477389        4.3275430153
  H        28.8490238535       10.5920273645        5.4834256942
  H        25.2831300895       11.1387024974        3.1405114928
  H        26.3692341474       13.0571254536        1.9608633965
  H        27.1217174228       11.6969816704        6.7964980135
  H        30.9576504703       22.7888139350        4.0340886074
  H        31.9630942091       24.6694193696        5.3356099687
  H        35.6433238960       24.1917629996        3.1608716469
  H        34.6182620325       22.3172664518        1.8557304633
  H        33.6449251567       23.6052727891        6.7614287637
  H        25.7206271698        8.5878590807        3.4080823939
  H        30.9246047736       22.7576041959       11.9797444830
  H        31.9536193674       24.6086081050       10.6636429547
  H        35.6316466717       24.0927323317       12.8335773839
  H        34.5868050499       22.2367512872       14.1463727567
  H        33.6391585270       23.5773350870        9.2061699061
  H        40.5796895812       17.0539742784       12.6656029714
  H        32.5130851542       14.1478527103        0.2563616783
  H        29.8761621904       12.5406032180       11.8808861131
  H        28.8416641732       10.6361616860       10.6434415369
  H        25.1912899687       11.1945994380       12.8478655665
  H        26.2439695583       13.0915537123       14.0905528621
  H        27.1163988326       11.7093224910        9.2326170801
  H        33.2895841821       14.1984600428       14.4237503593
  H        33.4084650145       14.4074189822        1.6073962172
  H        32.1677300372       18.5801079012       13.2264348444
  H        30.1895695403       14.1554882444        0.0697223257
  H        16.1139992402        2.9577968103        4.1282402165
  H        14.9429236938        4.8111398567        5.3211569128
  H        17.3566907466        7.6837771207        3.2193494552
  H        18.5113440871        5.8200616879        2.0192158970
  H        16.7390035439        5.7308465467        6.7756438066
  H        44.7967770881       32.1205107383        3.9716374945
  H        45.9009741952       30.3189844209        5.2997525463
  H        43.6186544635       27.3643845762        3.1630756241
  H        42.5369036415       29.1793994824        1.8244292451
  H        44.1899861713       29.4186205646        6.7730615377
  H        14.8392500454        8.5388106555        3.3674127730
  H        44.8906512301       32.2307361046       11.9158355416
  H        46.0091008461       30.4075683533       10.6339626546
  H        43.7629085647       27.4821460415       12.8470059607
  H        42.6504215116       29.3180801827       14.1273118658
  H        44.2433559182       29.4585832075        9.2119289268
  H        35.0898318940       26.6142919181       12.6339301546
  H        36.6053214114       35.1346629428        0.1855948038
  H        16.1405239873        3.0092710292       11.9032589311
  H        14.9668871783        4.8497076214       10.6871967942
  H        17.3899164700        7.7458633790       12.7455224625
  H        18.5408327484        5.8949691296       13.9738750213
  H        16.7519591547        5.7478250764        9.2130049026
  H        36.2788134474       34.4827681482       14.2679930985
  H        36.3824050851       34.2086672165        1.5039662657
  H        40.5797441753       33.2057101002       13.1437068615
  H        17.4704770775        1.9497249221       15.9691319081
  H        28.8012668888       18.9768382737        4.3750600940
  H        29.7645908541       19.9882092290       11.7003213374
  H        31.2941778607       15.4838551334        4.4645907542
  H        28.2024305853       17.4020839163        6.7710587771
  H        31.5031759486       20.0228572438        9.5354960711
  H        28.9869819034       16.6464207997        9.5880212345
  H        18.8549451693        0.8691717403        4.3424956403
  H        40.5287973737       35.2291495504       11.9466520267
  H        42.3253303342       34.4204151799       11.5842466617
  H        22.0894524169        0.6914119806        4.3556560838
  H        11.5967607141       18.7130850009        4.3876685988
  H        52.2638553209       18.4310693879       11.6695051382
  H        49.2552835550       16.4777136879       11.5780194854
  H        10.1505447204       15.7983681169        4.2971131178
  H        50.8496807933       17.6925252598       11.9492862160
  H        10.0458122450       17.3947546669        4.0569465120
  H        20.2154114580        0.0020477876        4.0470274823
  H        39.1840448130       36.1238045014       11.6782259167
  H        32.3285054251       17.8764124621        6.9625052810
 Ni        30.6519731177       17.9385976697       10.9889359937
 Ni        30.4793245555       16.0466863773        7.7434129901
 Ni        29.9383341230       18.7924296899        7.9124297240
 Ni        30.1827615903       17.2783523722        5.2464102686
  O        10.6476368719       14.3655232848       13.4797120408
  O        12.6102427956       14.6526517062       14.5789550485
  O        49.1474396144       16.8458125933       15.9845787269
  O        50.3495706784       20.9375979172       13.6430197476
  O        48.3482530322       20.5937214280       14.6605128868
  O        11.0483872408       17.0540179239       14.4960377532
  O        50.3184006904       20.8830926600        2.4126935855
  O        48.3460570761       20.5860133114        1.3313378639
  O        49.5429208059       18.2488771915        2.0737429265
  O        12.3595622319       18.6227024993        0.0039868388
  O        48.6930004162       14.1484413123       14.7462530371
  O         8.2096443728       14.2103549215        1.3277654362
  O        10.7343924439       14.5069320784        2.6696805447
  O        12.5712318219       14.5812049682        1.3350788451
  O        22.8447620568        2.0434969399       13.4822360869
  O        21.6053455741        3.5921545177       14.5847074295
  O        42.0579762064       34.1370764561       15.9728542388
  O        37.9808940266       33.1397218629       13.5673075559
  O        39.2172786865       31.5767837369       14.6607354943
  O        20.3084745501        1.0400204226       14.4972167352
  O        38.0243582971       33.1880171616        2.4202851239
  O        39.2154608602       31.5835976954        1.3321477439
  O        40.6501842751       33.7725083795        2.0652643946
  O        18.2546879669        1.3779218675        0.0018198979
  O        44.6222828708       35.1005025081       14.7536280418
  O        24.2047212031       -0.0011915301        1.3267318946
  O        22.7528892639        2.0571107359        2.5885937254
  O        21.6245304553        3.5959093192        1.3477763036
  O        27.4590334071       18.6928406688       13.4931309372
  O        26.7000334204       16.9083728119       14.6735498669
  O        30.6319589221       19.3556411333        0.0816791091
  O        33.5417623236       16.3288911446       13.6515256294
  O        34.2710418859       18.1794484606       14.7414170312
  O        29.5618895024       17.0682023093       14.5787630172
  O        33.6243089081       16.3297902269        2.4089848893
  O        34.2996204246       18.2536707311        1.4082638971
  O        31.6507695752       18.3145041206        2.1661420726
  O        30.2961245569       15.1202995295        0.0812237272
  O        28.5515653051       21.0335771824       14.9034534905
  O        28.5102613602       20.9522212751        1.4164141794
  O        27.4953337890       18.6080549478        2.7427093407
  O        26.6926987108       16.9292626088        1.4261082127
  O        13.1484675979       18.6926832892        2.5918919070
  O        13.9175580488       16.9153457669        1.4079637791
  O        50.5962417400       19.3506014287        0.0262356803
  O        47.6821375161       16.3276526520        2.4228228856
  O        46.9516782741       18.1761902999        1.3294473845
  O        11.0654875988       17.0182622341        1.4958767231
  O        47.6748164918       16.3356472898       13.6478528212
  O        46.9260847836       18.2359372083       14.6590832280
  O        49.5681033936       18.3181357392       13.9767936597
  O        10.3179172955       15.0995004693        0.0027216606
  O        52.6706600503       21.0280121832        1.2467674977
  O        12.1468171539       20.8904611892       14.6676627268
  O        13.1095714736       18.6060973741       13.3264569793
  O        13.9222289279       16.9348092711       14.6470238486
  O        29.9909604793       14.4422986824        2.7304533106
  O        28.0861379751       14.6552721153        1.4993591454
  O        32.0783839736       16.8618161656        0.0815561676
  O        30.9483472057       20.9487393070        2.4247929317
  O        32.9161526128       20.6534143719        1.3301904584
  O        29.5644785056       17.0725660948        1.5801316805
  O        30.8723388331       20.9544356561       13.6656278875
  O        32.8774384028       20.5838708999       14.6644705237
  O        31.6700982985       18.2641349717       13.9967210878
  O        28.2296617450       18.6724491077        0.0922931071
  O        32.4934905347       14.2123703187        1.3314529292
  O        32.3997588448       14.2188038860       14.8134158173
  O        29.8751442164       14.5069784044       13.4059655614
  O        28.0406468137       14.5858746224       14.7413793957
  O        17.8892372410        1.9663555591        2.6678310654
  O        18.9559768905        3.5274580455        1.4134536997
  O        39.1664465639       34.1405834761        0.0016752877
  O        43.2724008506       33.0475773372        2.3305248512
  O        41.9756509031       31.5090374608        1.2604662270
  O        20.3177737860        1.0374875940        1.4846383088
  O        43.2760463304       33.1822170120       13.5694332943
  O        42.0055261693       31.5843516632       14.5790468089
  O        40.5778710755       33.7761455140       13.9273670997
  O        22.3674241748        1.3846486287        0.0030177696
  O        36.6725512152       35.0999985724        1.2382206084
  O        16.4454681323        0.0647001419       14.6631152506
  O        17.9364361588        2.0433086957       13.3213309873
  O        18.9187613072        3.5934955169       14.6604091467
  O        29.7371925395       19.1266457964       12.1537255894
  O        29.7386844035       18.9843299225        4.0864214313
  O        31.1386072947       16.4044456939       12.0789346458
  O        31.4281187945       16.3373792677        3.9994011251
  O        29.8607164167       16.9895308353        9.3335431093
  O        30.0306821867       15.5268469495        6.1592052018
  O        31.3684692494       17.7360491993        6.9345991331
  O        30.7065335969       19.4735859148        9.5824799221
  O        28.7544689922       18.1528559602        6.4916456365
  O        39.4570306786       35.2441104289       11.9964516147
  O        19.1420626938        0.0051493179        3.9960255842
  O        41.9694482473       35.1729706100       12.0817754947
  O        21.6919291325       -0.0698681435        3.9006604899
  O        51.3651579228       18.6143413042       12.0003362874
  O        10.7508742845       18.7474693739        3.9102506888
  O        50.0792896361       16.4131119175       12.0859003766
  O         9.5242273191       16.4831857474        3.9964097090
 Zr         9.2966681287       16.0526083148       14.1760297567
 Zr        49.8343975120       16.0076618388        1.7521400991
 Zr        22.0736176388        0.0304695400       14.1837579014
 Zr        42.4597266687       35.1535053424        1.8052103231
 Zr        29.5592461235       19.0953467094       14.3084850142
 Zr        29.5678661956       19.1642707008        1.8912497288
 Zr        11.0382437817       19.0527038573        1.8335373091
 Zr        11.0438087036       19.1536677269       14.2467632289
 Zr        31.3416304697       16.0824252602        1.8804378163
 Zr        31.3771210576       16.0234952694       14.2756719475
 Zr        18.6009558208        0.0010918177        1.7692918439
 Zr        18.5065059002       -0.0042697363       14.2074532212
 Zr        12.2946431868       16.3170374900       15.9888935243
 Zr        48.6172257220       18.8330226853        0.0148122593
 Zr        20.3158317079        2.4752497463       15.9853821896
 Zr        40.6363032969       32.6918269833       15.9691469402
 Zr        28.3289538513       16.3346114251        0.0902545280
 Zr        32.6123581214       18.8376989209        0.0705761514
  O        30.1631955130       20.4393138364        6.4961199237
  H        31.0407804644       20.8550235359        6.4815837785
  H        30.0688539974       20.0071372855        5.5946910563
  H        30.6028737271       15.6448779283       11.7830406651
