     571
 i =      213, E =     -4761.5520115658
  C        11.8587603653       14.0535014764       13.7364927277
  C        12.4562910768       12.8905990083       13.0181981307
  C        11.7045560141       12.1715167358       12.0766844520
  C        12.2809719870       11.1093172820       11.3843654264
  C        13.6216382218       10.7397376513       11.6119166239
  C        14.3548919378       11.4435496929       12.5851377504
  C        13.7819780467       12.5085306865       13.2766212152
  C        14.2611766789        9.6490725312       10.8385283212
  C        14.2563681814        9.6569268418        9.4168359972
  C        13.7431187098       10.7590161508        8.6629428055
  C        49.1268679258       21.2331665442       13.8745894545
  C        48.5501298444       22.4011732521       13.1475171071
  C        49.3001615026       23.0684510602       12.1664984815
  C        48.7332654669       24.1076452776       11.4333311762
  C        47.4027656727       24.5093599050       11.6620349985
  C        46.6718342725       23.8605517464       12.6755983109
  C        47.2342402083       22.8155832044       13.4048920395
  C        46.7725165032       25.5870666396       10.8647779506
  C        46.7613709652       25.5573756136        9.4430163295
  C        47.2611762926       24.4422085062        8.6995384566
  C        14.8603357367        8.5706048552        8.7035772315
  C        14.8920641931        8.5971916184       11.5151689083
  C        49.1131975666       21.2033705836        2.1504163748
  C        48.5277925674       22.3647314204        2.8776635060
  C        49.2670020239       23.0253495204        3.8706474127
  C        48.6907029505       24.0599155936        4.6021378557
  C        47.3603096490       24.4567355981        4.3638896257
  C        46.6398971282       23.8118941224        3.3403260431
  C        47.2134258254       22.7759716365        2.6085403534
  C        46.7219222831       25.5317801691        5.1548775650
  C        46.7335370968       25.5281176957        6.5765826504
  C        47.2488688451       24.4288653034        7.3329827351
  C        40.6285161149       17.1161359810        7.3324917287
  C        40.6531435105       17.1612149100        4.5233609682
  C        11.8830224431       14.0865565767        2.2906451209
  C        12.4724045342       12.9108402479        2.9949248077
  C        11.7148027718       12.1774140997        3.9207937960
  C        12.2814689625       11.0950106135        4.5892252341
  C        13.6203978943       10.7215282381        4.3575961767
  C        14.3584865755       11.4373813095        3.3970952094
  C        13.7929881555       12.5184959048        2.7243740535
  C        14.2540111151        9.6247552229        5.1279835340
  C        14.2525455105        9.6445982637        6.5498251236
  C        13.7426235634       10.7535235143        7.2969000976
  C        22.5133487955        3.2460149860       13.7465752984
  C        23.2297034484        4.3502518427       13.0455129589
  C        24.2260364632        4.0675305330       12.0990288409
  C        24.8566175335        5.1046402690       11.4161319463
  C        24.5075375409        6.4483813592       11.6581765107
  C        23.5387250148        6.7224952238       12.6411580096
  C        22.9035790088        5.6871372688       13.3228626345
  C        25.1186151778        7.5527084759       10.8817110482
  C        25.0953921290        7.5440868809        9.4595610430
  C        24.3924711034        6.5460703336        8.7124638093
  C        38.3033944490       31.9308780256       13.8449767821
  C        37.5745224390       30.8408687572       13.1362140270
  C        36.6126977872       31.1438785334       12.1607324966
  C        35.9967936427       30.1226662848       11.4430794663
  C        36.3290853695       28.7745804391       11.6798519370
  C        37.2614472911       28.4788109993       12.6916931135
  C        37.8811830132       29.4988061493       13.4083301037
  C        35.7272255665       27.6834287836       10.8828185669
  C        35.7531113329       27.7026456350        9.4616477111
  C        36.4595882191       28.7050227655        8.7248750523
  C        25.7225074738        8.6118546605        8.7392217435
  C        25.7167221247        8.6278918284       11.5518878076
  C        38.3287874326       31.9637734856        2.1610594030
  C        37.6039826770       30.8938153496        2.9043725570
  C        36.6788230604       31.2094228947        3.9111174374
  C        36.0636187312       30.1956309207        4.6426172855
  C        36.3590541582       28.8414205372        4.3894966905
  C        37.2622269925       28.5357019419        3.3531252893
  C        37.8802052691       29.5462096295        2.6234370225
  C        35.7445102702       27.7463578765        5.1737467548
  C        35.7620225455       27.7349610549        6.5954642195
  C        36.4644258038       28.7199837078        7.3583764209
  C        46.1356201299       26.6208207052        7.2866994565
  C        46.0881144641       26.5802115742        4.4787980273
  C        22.4639632336        3.2564547789        2.2622712183
  C        23.1644582362        4.3634061199        2.9821238658
  C        24.1689780139        4.0738833877        3.9195843077
  C        24.8037202826        5.1015393450        4.6132635960
  C        24.4547050485        6.4490861475        4.3927526557
  C        23.4735726207        6.7318072374        3.4234030351
  C        22.8341783367        5.7044099928        2.7299948937
  C        25.0906952952        7.5449770201        5.1668274373
  C        25.0813286612        7.5397494118        6.5897031834
  C        24.3838493213        6.5453127254        7.3457059494
  C        26.6255871625       17.8623632057       13.7787880715
  C        25.3170555675       17.9070337748       13.0557181603
  C        25.0614448610       18.8948246913       12.0914014653
  C        23.8481040861       18.9135149699       11.4058298514
  C        22.8530279716       17.9477248619       11.6615241169
  C        23.1052068030       16.9831048195       12.6554133850
  C        24.3203612593       16.9589400786       13.3388033331
  C        21.5795168547       17.9307155370       10.8970241847
  C        21.5791537803       17.9016106620        9.4744562445
  C        22.7839813235       17.7689881356        8.7145040253
  C        34.4187716817       17.2197191235       13.9076046394
  C        35.7109478347       17.1488606696       13.1656839590
  C        35.9047103049       16.1849236445       12.1639783664
  C        37.0884584325       16.1602211759       11.4310375885
  C        38.1101143536       17.0980091711       11.6790331098
  C        37.9187809116       18.0403265543       12.7079330098
  C        36.7336558185       18.0701879812       13.4386574897
  C        39.3662453847       17.1015403159       10.8946826963
  C        39.3654466591       17.1222183225        9.4727480851
  C        38.1607533112       17.2495518477        8.7119727364
  C        20.3326708722       17.9198989728        8.7654306812
  C        20.3542029510       17.9378457078       11.5787041944
  C        34.4717700911       17.2476450910        2.1897901757
  C        35.7738379043       17.1721363309        2.9130393727
  C        35.9870474362       16.1862115992        3.8880817749
  C        37.1736890579       16.1645129893        4.6152107218
  C        38.1748333826       17.1285733562        4.3875644087
  C        37.9678990820       18.0896257352        3.3805836693
  C        36.7794274413       18.1160224321        2.6557727649
  C        39.4206331358       17.1442265872        5.1850072020
  C        39.3935012235       17.1455970152        6.6060999982
  C        38.1739155343       17.2589373371        7.3454049694
  C        35.1293814796       26.6566469358        7.2987085262
  C        35.1414598685       26.6837109055        4.4900650847
  C        26.5903089451       17.7966569764        2.3666435228
  C        25.2729773669       17.8456239903        3.0657895792
  C        25.0048094294       18.8509535177        4.0066815785
  C        23.7805601724       18.8816204832        4.6682545814
  C        22.7964919147       17.9051224841        4.4150554448
  C        23.0591997695       16.9248737940        3.4411127731
  C        24.2829319511       16.8940296194        2.7753357610
  C        21.5305098767       17.8876978897        5.1843513854
  C        21.5538884027       17.8770180692        6.6059756533
  C        22.7717097395       17.7562636061        7.3483054904
  C        14.0472854392       17.8280242775        2.2947319912
  C        15.3517032575       17.8827266231        3.0208453748
  C        15.6097515031       18.8834831262        3.9707793048
  C        16.8188235462       18.9014082486        4.6639032151
  C        17.8047885277       17.9213776992        4.4298066736
  C        17.5514771606       16.9450099823        3.4476754645
  C        16.3419242241       16.9224586074        2.7561367066
  C        19.0741192567       17.9012314963        5.1990273961
  C        19.0726915264       17.8981094103        6.6217158348
  C        17.8656204107       17.8017570077        7.3832326613
  C        46.8059070177       17.2201595760        2.1658760691
  C        45.5183844514       17.1620105720        2.9161886756
  C        45.3139683616       16.1860580912        3.9038473853
  C        44.1344089828       16.1704621248        4.6435102054
  C        43.1292740788       17.1311047781        4.4175925831
  C        43.3317058830       18.0877836340        3.4044044541
  C        44.5118499428       18.1071518046        2.6656400192
  C        41.8754797611       17.1413504373        5.2052362691
  C        41.8772998916       17.1323525701        6.6272182614
  C        43.0841097071       17.2217938538        7.3897759343
  C        20.3193102924       17.9069507541        7.3305119859
  C        20.2987507546       17.8797207109        4.5170839812
  C        46.7830283367       17.2290429060       13.8864079105
  C        45.4765937895       17.1166741027       13.1768008866
  C        45.2587951681       16.1165358922       12.2169681485
  C        44.0689692568       16.0847116079       11.4936554043
  C        43.0666216942       17.0494457572       11.7135614188
  C        43.2737868984       18.0175158472       12.7140012355
  C        44.4650518343       18.0561037347       13.4319728331
  C        41.8212039399       17.0713143198       10.9143826019
  C        41.8496515123       17.0946350965        9.4934413969
  C        43.0709634472       17.2016021444        8.7561156366
  C        46.1534211935       26.6372864290        8.7212531006
  C        46.1627099084       26.6562737634       11.5308892393
  C        14.0459643530       17.8319791203       13.7038651937
  C        15.3674606187       17.9065412996       13.0142874301
  C        15.6408284479       18.9202155503       12.0837378128
  C        16.8702827315       18.9570928376       11.4296308952
  C        17.8543003972       17.9795252262       11.6802343448
  C        17.5879215341       16.9952530055       12.6493975220
  C        16.3604717225       16.9577355688       13.3068964692
  C        19.1217619618       17.9527977478       10.9114516724
  C        19.0975255339       17.9237191323        9.4900004636
  C        17.8777983926       17.8131456749        8.7492520551
  C        28.8145381459       14.0862176530        2.3678043881
  C        28.2134549343       12.9119812836        3.0618956587
  C        28.9356803689       12.1927750591        4.0252041691
  C        28.3440104098       11.1155737447        4.6805709474
  C        27.0155456408       10.7359218287        4.4002785390
  C        26.3152737209       11.4379429564        3.4024424611
  C        26.9048417764       12.5136638493        2.7438869625
  C        26.3486954795        9.6557950993        5.1640228406
  C        26.3325018016        9.6832035847        6.5854001472
  C        26.8343935848       10.7968242508        7.3309625135
  C        32.1520714577       21.2669924092        2.1543046848
  C        32.7343629394       22.4390622384        2.8717541384
  C        31.9868856754       23.1104744650        3.8509091879
  C        32.5567810122       24.1512748759        4.5783789357
  C        33.8889976699       24.5452690201        4.3475477202
  C        34.6172817765       23.8935180556        3.3348641517
  C        34.0497623879       22.8492104548        2.6087179702
  C        34.5238382980       25.6153648203        5.1490421336
  C        34.5266294793       25.5795610641        6.5702078396
  C        34.0186560442       24.4629058428        7.3066729214
  C        25.7200083128        8.6063404696        7.3042509130
  C        25.7109868137        8.6046233753        4.4912037631
  C        32.1064414881       21.2302553207       13.8795086584
  C        32.6989228269       22.3802476846       13.1350404718
  C        31.9592968588       23.0521896604       12.1493319200
  C        32.5403281946       24.0801900494       11.4107920470
  C        33.8746919277       24.4680661686       11.6418933040
  C        34.5973810160       23.8106077346       12.6557346843
  C        34.0212816944       22.7758674047       13.3882496786
  C        34.5128008043       25.5505895087       10.8583748660
  C        34.5192389737       25.5473034895        9.4366693811
  C        34.0144021758       24.4481256646        8.6731874088
  C        40.6140188102       17.1001674812        8.7669515754
  C        40.5887129080       17.0921960919       11.5765691559
  C        28.7354983040       14.1000091729       13.7755689166
  C        28.1363619023       12.9450725726       13.0436335877
  C        28.8768803909       12.2406620721       12.0816309045
  C        28.3023105376       11.1736898500       11.3947209894
  C        26.9706673110       10.7838019497       11.6433701426
  C        26.2482843607       11.4742302351       12.6347892142
  C        26.8213737426       12.5406464861       13.3245220808
  C        26.3322691880        9.6884962932       10.8739206011
  C        26.3264616010        9.6994536155        9.4518156450
  C        26.8296338451       10.8050535029        8.6966464810
  C        18.1355452089        3.1811963701        2.3222527783
  C        17.4062924070        4.2784156883        3.0208172044
  C        16.3903857378        4.0000739283        3.9481555914
  C        15.7426905261        5.0400652602        4.6116463219
  C        16.0948421079        6.3837755156        4.3721865189
  C        17.0844744104        6.6532844602        3.4086705432
  C        17.7335549735        5.6159313090        2.7436160107
  C        15.4705094122        7.4914666919        5.1352518927
  C        15.4855723260        7.4906259314        6.5569725433
  C        16.1871713088        6.4970315354        7.3101355487
  C        42.9460283396       31.8596531742        2.0780433330
  C        43.6464863227       30.7719887457        2.8219786943
  C        44.5919235095       31.0933422959        3.8081287132
  C        45.1976534279       30.0878146987        4.5558160135
  C        44.8714401168       28.7347154965        4.3408262856
  C        43.9458407605       28.4203450094        3.3274051013
  C        43.3370146386       29.4254664820        2.5793455644
  C        45.4889594840       27.6553936887        5.1440428958
  C        45.4930441614       27.6810034206        6.5657416685
  C        44.8060479578       28.6891136765        7.3123626509
  C        14.8566172097        8.5631143947        7.2693564974
  C        14.8752807960        8.5632720106        4.4566637005
  C        42.9465286433       31.9617728610       13.8039076586
  C        43.6918582029       30.8856460556       13.0904615167
  C        44.6561668337       31.1916002944       12.1178996457
  C        45.2777389629       30.1720407425       11.4001709019
  C        44.9543954183       28.8216724594       11.6381137462
  C        44.0213250127       28.5239795141       12.6492791038
  C        43.3930442265       29.5407122026       13.3614853138
  C        45.5633871926       27.7242691047       10.8528414968
  C        45.5335375653       27.7175003492        9.4315393768
  C        44.8273225544       28.7077801051        8.6785472275
  C        35.1253965102       26.6401016749        8.7331469248
  C        35.1269350947       26.6057274936       11.5430575340
  C        18.1487447287        3.2471841684       13.7015037190
  C        17.4302127405        4.3439824601       12.9922500911
  C        16.4148134619        4.0527364215       12.0688663527
  C        15.7665446645        5.0833697235       11.3934711005
  C        16.1214274154        6.4285810155       11.6160045154
  C        17.1129569944        6.7119495717       12.5731039480
  C        17.7606172070        5.6830363793       13.2528851306
  C        15.4908408833        7.5242356874       10.8435816817
  C        15.4966120987        7.5075310769        9.4224513977
  C        16.1933921748        6.5058477065        8.6757428319
  H        10.6723404667       12.4654456515       11.8998429961
  H        11.6946499902       10.5506621536       10.6579909917
  H        15.3920323669       11.1692245207       12.7666483150
  H        14.3515458340       13.0719659429       14.0118152744
  H        13.3760972889       11.6311252165        9.1962640442
  H        50.3228455527       22.7483429211       11.9817091953
  H        49.3197573980       24.6228878942       10.6757387475
  H        45.6423892207       24.1614257456       12.8588487260
  H        46.6632606535       22.2903375273       14.1670046442
  H        47.6296967275       23.5758375232        9.2412508155
  H        14.8725810012        8.5885470635       12.6034741757
  H        50.2870503849       22.7024740999        4.0655273656
  H        49.2691162037       24.5753312563        5.3656582102
  H        45.6105156765       24.1092011910        3.1512501657
  H        46.6526412949       22.2538540978        1.8369238864
  H        47.6075871512       23.5517137499        6.8020913621
  H        40.6616396077       17.1344774943        3.4354143851
  H        48.6870732443       14.0949703992       15.7948794703
  H        10.6812399079       12.4662682699        4.0980183898
  H        11.6896400909       10.5243844164        5.3017078763
  H        15.3940501475       11.1598014114        3.2114212907
  H        14.3654591831       13.0881291480        1.9961536096
  H        13.3757881654       11.6221346839        6.7582607001
  H        47.9301996409       14.2181715431        1.7160442476
  H        47.7800713465       14.3738559178       14.4901180308
  H        49.0843036724       18.5525752091        2.8726561049
  H        10.4160794282       14.1343561659        0.0038263339
  H        24.4846898832        3.0282338208       11.9089112910
  H        25.6294237840        4.8833537248       10.6831641120
  H        23.2603966005        7.7562419116       12.8354741398
  H        22.1341102216        5.8914448710       14.0634330084
  H        23.8282500854        5.7909221148        9.2519067834
  H        36.3730421589       32.1868082770       11.9674304645
  H        35.2503048795       30.3596644967       10.6882023841
  H        37.5250542257       27.4401844833       12.8803297774
  H        38.6270877054       29.2801511362       14.1687404320
  H        37.0295452471       29.4509184129        9.2711729517
  H        25.7484218218        8.6129938482       12.6398748531
  H        36.4631769519       32.2552944884        4.1174950223
  H        35.3408734189       30.4453857905        5.4162420471
  H        37.5017428543       27.4936403768        3.1519586654
  H        38.6002666918       29.3158853945        1.8419800966
  H        37.0394071857       29.4768293823        6.8325734601
  H        46.1096813337       26.5876446500        3.3907648629
  H        44.6684822667       35.1162754809       15.8087352689
  H        24.4431478920        3.0346442308        4.0863126709
  H        25.5857784945        4.8691909567        5.3329917414
  H        23.1923516072        7.7674434815        3.2433985204
  H        22.0611277536        5.9210396961        1.9962844508
  H        23.8125009476        5.7899600011        6.8139573865
  H        44.9541453353       34.3905697440        1.7003454093
  H        44.9018256647       34.2069047891       14.4854041430
  H        40.6664824808       33.2098012332        2.8585084763
  H        23.1508406817        1.9582928251        0.0097852855
  H        25.8273015579       19.6414807943       11.8940607656
  H        23.6557080990       19.6858088920       10.6640786739
  H        22.3496190011       16.2280635098       12.8629037866
  H        24.5243369112       16.1999367636       14.0904826030
  H        23.7240017066       17.6462067063        9.2445360976
  H        35.1112806102       15.4673909579       11.9680117494
  H        37.2371828006       15.4046746231       10.6626589153
  H        38.6994258830       18.7721640749       12.9050896437
  H        36.5707032078       18.8122649189       14.2168423718
  H        37.2199643543       17.3709083627        9.2410632447
  H        20.3605088729       17.9831236109       12.6663771877
  H        35.2037252142       15.4549322963        4.0729645610
  H        37.3383969565       15.3969941949        5.3682744674
  H        38.7349657723       18.8400209504        3.2006694240
  H        36.5977707274       18.8752412721        1.8987549494
  H        37.2432989613       17.3859830581        6.7997395395
  H        35.1074895591       26.7144139615        3.4026988395
  H        28.5001882741       21.0773456291       15.9011119106
  H        25.7679151625       19.6006285529        4.2023692295
  H        23.5719449918       19.6654899612        5.3931192513
  H        22.3081728860       16.1636541147        3.2400384909
  H        24.5014484803       16.1256151208        2.0377013931
  H        23.7024463465       17.6234513478        6.8048511524
  H        28.9935883293       21.7161766131        1.7625878826
  H        29.1893665904       21.7272815305       14.5812737759
  H        32.0861837434       18.5428846560        3.0013754027
  H        27.4012320466       19.0711150733        0.0959633854
  H        14.8523632927       19.6431713797        4.1508132800
  H        17.0145533338       19.6839848402        5.3938361494
  H        18.3017159911       16.1802481522        3.2572464825
  H        16.1355585619       16.1550079762        2.0139030206
  H        16.9229349065       17.6862406257        6.8562522149
  H        46.0963184189       15.4526349300        4.0844596808
  H        43.9761701007       15.4048708946        5.3998858569
  H        42.5641165018       18.8379774802        3.2259818054
  H        44.6840819586       18.8597480531        1.8997677139
  H        44.0272589538       17.3389812163        6.8636868247
  H        20.2932495096       17.9106130206        3.4289633924
  H        46.0383309448       15.3795206930       12.0379083577
  H        43.9040621064       15.3095715875       10.7484128118
  H        42.5047577274       18.7665164417       12.8911265018
  H        44.6463076631       18.8236078225       14.1804399175
  H        44.0040675373       17.3020507879        9.3028454729
  H        46.1997539999       26.6829015679       12.6183255195
  H        52.7412392986       21.0626503542        0.1997948802
  H        14.8798713323       19.6728928903       11.8895658433
  H        17.0810795898       19.7459802370       10.7107886846
  H        18.3389992839       16.2342005377       12.8508617045
  H        16.1396646097       16.1846157903       14.0388166482
  H        16.9442292220       17.7062792398        9.2934053402
  H        52.3226055784       21.6733065176       14.2890992691
  H        52.0132711724       21.7020490635        1.5007937609
  H        49.0669666948       18.6072729896       13.1991038943
  H        13.2477430425       19.0160500838       15.9724704700
  H        29.9548474561       12.4965259821        4.2527972941
  H        28.9067635989       10.5576836759        5.4257881867
  H        25.2884145456       11.1564880866        3.1784226214
  H        26.3604593312       13.0763246851        1.9895842886
  H        27.1985670382       11.6664072724        6.7919349141
  H        30.9644481944       22.7904536280        4.0372273413
  H        31.9734651403       24.6727911397        5.3341165750
  H        35.6481777911       24.1895306606        3.1517676137
  H        34.6171224427       22.3185406611        1.8477221600
  H        33.6559638795       23.5986087558        6.7576451313
  H        25.7425004765        8.5842447267        3.4032451551
  H        30.9291043999       22.7528353548       11.9711156290
  H        31.9601139765       24.6031340676       10.6535836965
  H        35.6300698515       24.0999142721       12.8395483908
  H        34.5840499216       22.2458923729       14.1532425974
  H        33.6486294924       23.5720690576        9.2010312785
  H        40.5796381577       17.0491750599       12.6640505961
  H        32.5111849567       14.1517992612        0.2592714874
  H        29.9064510889       12.5359628648       11.8925759753
  H        28.8850469267       10.6245821305       10.6582853174
  H        25.2181052809       11.1865061749       12.8345209528
  H        26.2595402518       13.0880237574       14.0776331900
  H        27.1886553013       11.6813563654        9.2280989868
  H        33.2905394256       14.2132265382       14.4259031950
  H        33.4113289010       14.4107269169        1.5995667165
  H        32.1097402013       18.5470601253       13.1704507259
  H        30.2327894974       14.1953439475        0.0662363758
  H        16.1181479850        2.9635906801        4.1343955668
  H        14.9530839784        4.8207530149        5.3271558932
  H        17.3672070747        7.6861289765        3.2158120795
  H        18.5158641048        5.8186149241        2.0160633169
  H        16.7538306055        5.7397682195        6.7766285010
  H        44.8280702310       32.1404380064        3.9824387900
  H        45.9374384514       30.3416285897        5.3118224413
  H        43.6834154428       27.3782401049        3.1570904895
  H        42.6006018471       29.1901122490        1.8144942499
  H        44.2308730566       29.4370081999        6.7740447324
  H        14.8517457410        8.5466559191        3.3684313452
  H        44.8994193997       32.2343021789       11.9261869865
  H        46.0244505962       30.4133454776       10.6467623918
  H        43.7648682661       27.4842002144       12.8412442356
  H        42.6469644673       29.3178920327       14.1203297944
  H        44.2689534705       29.4707905675        9.2130958786
  H        35.0899928065       26.6146795125       12.6307523425
  H        36.6053089363       35.1343441843        0.1858027316
  H        16.1436056077        3.0131728081       11.8992852864
  H        14.9741314896        4.8565667392       10.6834818360
  H        17.3967053292        7.7473835380       12.7497832915
  H        18.5437265965        5.8935177243       13.9773945857
  H        16.7649297531        5.7556763018        9.2141615726
  H        36.2789064084       34.4826519010       14.2679553522
  H        36.3816452626       34.2090530242        1.5044718007
  H        40.5811036667       33.2034741018       13.1482286477
  H        17.4712483717        1.9480574544       15.9691569382
  H        28.9921070551       19.1406512450        4.4965349114
  H        29.7358529360       19.8245401643       11.6208139846
  H        31.2848096258       15.5557537398        4.4877911299
  H        28.2585048149       17.3361756491        6.6694209583
  H        31.4244265160       19.9184231026        9.4401476627
  H        29.3132995011       16.3120300908        9.0987807837
  H        18.8559117123        0.8695483956        4.3407950358
  H        40.5278049631       35.2289521961       11.9467634027
  H        42.3253243536       34.4199967858       11.5847526647
  H        22.0881785768        0.6925104065        4.3566106418
  H        11.5972196472       18.7129041062        4.3874420823
  H        52.2650363870       18.4309471600       11.6724111522
  H        49.2548833737       16.4770182858       11.5793352844
  H        10.1510093911       15.7981007678        4.2974649265
  H        50.8500449242       17.6925821741       11.9491058280
  H        10.0465854644       17.3944721384        4.0570396700
  H        20.2178502978        0.0028974509        4.0466885682
  H        39.1837721894       36.1246196470       11.6814364493
  H        32.4458042750       18.4170262222        7.6291414616
 Ni        30.7454984816       17.8856615502       10.6663156254
 Ni        31.2356383719       16.1351747516        7.4978191992
 Ni        29.9720810181       18.6221066928        7.8318548272
 Ni        30.0982506515       17.2798167381        5.2368584240
  O        10.6499746145       14.3651728331       13.4806869574
  O        12.6131875311       14.6575335493       14.5787997918
  O        49.1478466429       16.8458914356       15.9845579090
  O        50.3502587875       20.9358663591       13.6429272271
  O        48.3485658715       20.5932983345       14.6608226985
  O        11.0516432193       17.0538651020       14.4956118385
  O        50.3209542175       20.8816451419        2.4119503386
  O        48.3467411624       20.5867131153        1.3321868405
  O        49.5437517099       18.2484000151        2.0732978099
  O        12.3591149301       18.6246298013        0.0048458051
  O        48.6932358626       14.1485931445       14.7461776494
  O         8.2098796811       14.2104203415        1.3276607786
  O        10.7353383869       14.5067433596        2.6694236689
  O        12.5718099694       14.5828217332        1.3336048358
  O        22.8451714403        2.0441325967       13.4818293894
  O        21.6066817801        3.5932483934       14.5834954357
  O        42.0585343956       34.1377808260       15.9738082192
  O        37.9818490172       33.1385809573       13.5676875407
  O        39.2186312073       31.5766414255       14.6621491376
  O        20.3087464974        1.0402064273       14.4971735845
  O        38.0251334215       33.1872837771        2.4198826879
  O        39.2189677190       31.5838734171        1.3320046394
  O        40.6525183862       33.7696306150        2.0653062603
  O        18.2556940365        1.3765667529        0.0019486830
  O        44.6222227153       35.1006035770       14.7535977044
  O        24.2055023074       -0.0000005013        1.3258146601
  O        22.7532969633        2.0576927956        2.5889632138
  O        21.6253107672        3.5968644332        1.3491727393
  O        27.5009656740       18.7519927638       13.4919032907
  O        26.7673526259       16.9330628439       14.6497598840
  O        30.6616544346       19.4031950913        0.0724115667
  O        33.5377247361       16.3298872745       13.6453149505
  O        34.2742023772       18.1782969051       14.7382710616
  O        29.5716362398       17.0701797288       14.5755468085
  O        33.6129448036       16.3292540702        2.4159967755
  O        34.3026967605       18.2488864742        1.4124267333
  O        31.6559144758       18.3169394228        2.1590152512
  O        30.3247598015       15.1623638314        0.0763365111
  O        28.5529416167       21.0354315457       14.8410678148
  O        28.5124961393       20.9474556777        1.4124991133
  O        27.4975578965       18.6129986681        2.7371955973
  O        26.6950099962       16.9320549235        1.4207430003
  O        13.1496109893       18.6927036945        2.5927299536
  O        13.9195618645       16.9161500953        1.4101526122
  O        50.5961620619       19.3501976155        0.0255389123
  O        47.6833581956       16.3271424828        2.4225189169
  O        46.9515326121       18.1758429542        1.3299176219
  O        11.0699007805       17.0154606687        1.4947390138
  O        47.6751187416       16.3355956343       13.6481204845
  O        46.9258054565       18.2358321722       14.6588785664
  O        49.5686272977       18.3177202837       13.9771736168
  O        10.3186241102       15.1001990492        0.0022343035
  O        52.6707598914       21.0278507640        1.2469263401
  O        12.1468184388       20.8911832437       14.6681620634
  O        13.1083257218       18.6136059332       13.3204687005
  O        13.9572819748       16.9870710931       14.6603362144
  O        30.0049039569       14.4375125563        2.6677451039
  O        28.0800544651       14.6579037395        1.4896515922
  O        32.1272173540       16.8624451781        0.0755184604
  O        30.9483593229       20.9479641759        2.4259134598
  O        32.9172122148       20.6545162747        1.3319565132
  O        29.5688358256       17.0745816689        1.5761190566
  O        30.8751893108       20.9505498915       13.6589127361
  O        32.8792707103       20.5856444701       14.6610882379
  O        31.6811731354       18.2556809800       13.9913108729
  O        28.2889318294       18.6771843202        0.0877104646
  O        32.4946238176       14.2137476875        1.3307529192
  O        32.3956138022       14.2256393599       14.8043478456
  O        29.8912520437       14.5116811574       13.4088339222
  O        28.0477928538       14.5858366259       14.7395019137
  O        17.8892433166        1.9667436609        2.6679005054
  O        18.9563872443        3.5271798416        1.4130614400
  O        39.1686903768       34.1389704859        0.0023900665
  O        43.2802823504       33.0590507563        2.3368375293
  O        42.0346093705       31.5064787392        1.2467845417
  O        20.3181829654        1.0372807896        1.4848161732
  O        43.2760916655       33.1826780185       13.5697576201
  O        42.0052950264       31.5841488447       14.5778889189
  O        40.5791009650       33.7752713364       13.9309725675
  O        22.3676667906        1.3850742576        0.0029862699
  O        36.6728101729       35.0999450696        1.2383906289
  O        16.4456877162        0.0644805796       14.6631804057
  O        17.9365399509        2.0434763803       13.3213483040
  O        18.9192397104        3.5931959850       14.6608354543
  O        29.9004672411       18.9766090523       12.0716753240
  O        29.8191347791       18.8278042412        4.0808709855
  O        31.0164744090       16.4849071312       11.9846202117
  O        31.3026560318       16.4157380810        4.0153783922
  O        30.0722345695       16.9134647048        8.9938605133
  O        30.1572900654       15.7548661780        6.1487403499
  O        31.7031164877       18.0953857414        7.0865579845
  O        30.5890008027       19.4250440201        9.4962278971
  O        28.8132755555       18.0937073289        6.4080126204
  O        39.4567215696       35.2438811411       11.9968880975
  O        19.1438083116        0.0053440037        3.9954302553
  O        41.9695775833       35.1727433332       12.0820891034
  O        21.6917626822       -0.0690998750        3.9012277151
  O        51.3651532632       18.6142897045       12.0003021332
  O        10.7513512615       18.7471606112        3.9099904412
  O        50.0792809307       16.4127966738       12.0866419977
  O         9.5249882443       16.4829813331        3.9962924270
 Zr         9.2971466045       16.0527871396       14.1772994011
 Zr        49.8366138563       16.0066326714        1.7514993627
 Zr        22.0736421232        0.0310036099       14.1835652292
 Zr        42.4614241126       35.1543644506        1.8060557018
 Zr        29.6066222705       19.0863421033       14.2772831167
 Zr        29.5814231402       19.1667416671        1.8931618578
 Zr        11.0385197232       19.0517293834        1.8328206424
 Zr        11.0442490068       19.1547195322       14.2458808238
 Zr        31.3476958921       16.1036131811        1.8705621024
 Zr        31.3793057764       16.0394754217       14.2613836051
 Zr        18.6018798376       -0.0000471216        1.7685938197
 Zr        18.5069934546       -0.0065823428       14.2090785495
 Zr        12.3026638472       16.3235367853       15.9851821740
 Zr        48.6166427486       18.8329973814        0.0151320163
 Zr        20.3164907180        2.4750936065       15.9854571478
 Zr        40.6443994404       32.6881762397       15.9733697189
 Zr        28.3373727807       16.3415202115        0.0924199931
 Zr        32.6265846808       18.8505947472        0.0719488102
  H        30.7336365031       15.6466041955       11.5774615683
  H        32.0579319240       17.5948515500       10.1384749197
  H        31.2021267855       14.7232174106        7.8786555806
