     571
 i =      130, E =     -4761.5363406945
  C        11.8587339578       14.0535092429       13.7364506829
  C        12.4562408912       12.8905938753       13.0181362601
  C        11.7044283711       12.1714623443       12.0767236871
  C        12.2808059290       11.1092474751       11.3843906070
  C        13.6214727272       10.7396482659       11.6119137825
  C        14.3547751023       11.4434625755       12.5851042149
  C        13.7818923351       12.5084477876       13.2766071455
  C        14.2610083453        9.6489806476       10.8385193844
  C        14.2562175071        9.6568516941        9.4168193000
  C        13.7428537056       10.7588958572        8.6629300274
  C        49.1268137807       21.2331710777       13.8745687463
  C        48.5500598166       22.4011740192       13.1474952742
  C        49.3001163768       23.0685157966       12.1665453861
  C        48.7332092769       24.1076861802       11.4333561513
  C        47.4026787488       24.5093211299       11.6619967075
  C        46.6716947041       23.8604138107       12.6754543068
  C        47.2341165074       22.8154680314       13.4047716690
  C        46.7724246166       25.5870177988       10.8647288529
  C        46.7612878553       25.5573427077        9.4429711758
  C        47.2611156840       24.4421859274        8.6994985845
  C        14.8602792807        8.5705884741        8.7035450678
  C        14.8919555418        8.5971352421       11.5151713772
  C        49.1132004678       21.2033552353        2.1504222442
  C        48.5277898691       22.3647192729        2.8776885953
  C        49.2670164737       23.0253900194        3.8706210424
  C        48.6907166012       24.0599673549        4.6020922801
  C        47.3603289026       24.4567810995        4.3638354470
  C        46.6399188377       23.8119261752        3.3402821928
  C        47.2134380461       22.7759893614        2.6085073734
  C        46.7219063548       25.5317930077        5.1548419691
  C        46.7334872972       25.5281104667        6.5765511965
  C        47.2488319567       24.4288576245        7.3329436004
  C        40.6307637353       17.1144692891        7.3349265580
  C        40.6568438022       17.1659432279        4.5260439422
  C        11.8830100516       14.0866208685        2.2906982083
  C        12.4723506720       12.9108369204        2.9949277707
  C        11.7147429387       12.1773827775        3.9207701814
  C        12.2813483119       11.0948997345        4.5891284097
  C        13.6202949152       10.7214697284        4.3575721103
  C        14.3584009397       11.4373005692        3.3970758614
  C        13.7929423566       12.5184831295        2.7244316861
  C        14.2539099550        9.6247158922        5.1279657064
  C        14.2524632501        9.6445691086        6.5497998973
  C        13.7423541369       10.7533971823        7.2968858236
  C        22.5119040496        3.2460115526       13.7461425630
  C        23.2244162090        4.3516278277       13.0438588265
  C        24.2196331220        4.0721183833       12.0953871029
  C        24.8455001798        5.1115540319       11.4117078838
  C        24.4923955177        6.4540152181       11.6550425304
  C        23.5249132163        6.7249117851       12.6401613496
  C        22.8946201023        5.6873345447       13.3226277853
  C        25.0985741547        7.5607105435       10.8785597750
  C        25.0759174532        7.5519269858        9.4564528990
  C        24.3779710330        6.5508554115        8.7087730606
  C        38.3032778257       31.9309711187       13.8452984359
  C        37.5738309749       30.8408802874       13.1372646995
  C        36.6108688097       31.1437997159       12.1629100063
  C        35.9945473027       30.1224984475       11.4458055368
  C        36.3277094924       28.7745382212       11.6819614466
  C        37.2610033151       28.4787765297       12.6929026372
  C        37.8810183563       29.4988927095       13.4091155139
  C        35.7259144674       27.6836870239       10.8845932757
  C        35.7514299178       27.7039596834        9.4634659856
  C        36.4578388881       28.7069092109        8.7274240105
  C        25.6998779126        8.6217866949        8.7366379642
  C        25.6931546176        8.6375672088       11.5491035094
  C        38.3294662517       31.9641338391        2.1614283561
  C        37.6058254819       30.8944314425        2.9059789525
  C        36.6794132703       31.2105005012        3.9113686780
  C        36.0645089715       30.1970218662        4.6434554358
  C        36.3616966761       28.8429447504        4.3920408173
  C        37.2668065808       28.5366870620        3.3575974497
  C        37.8843947870       29.5468929624        2.6272984110
  C        35.7463255814       27.7482300299        5.1757990883
  C        35.7616744059       27.7372518152        6.5974634227
  C        36.4632634284       28.7223836265        7.3609730896
  C        46.1355562876       26.6208071728        7.2866695228
  C        46.0881174393       26.5802390390        4.4787710253
  C        22.4635485879        3.2562398556        2.2616972826
  C        23.1630570982        4.3638647785        2.9808144812
  C        24.1693346719        4.0760067081        3.9167940907
  C        24.8025999047        5.1049125254        4.6098913448
  C        24.4498950581        6.4514789725        4.3899988117
  C        23.4671642949        6.7326407826        3.4219507657
  C        22.8293754231        5.7040588381        2.7290794439
  C        25.0826794283        7.5487353631        5.1643625731
  C        25.0685954131        7.5451517146        6.5870337414
  C        24.3725969526        6.5489541634        7.3420197022
  C        26.6229343860       17.8610614591       13.7814433414
  C        25.3153664796       17.9000084770       13.0554708484
  C        25.0572359878       18.8885498512       12.0926727479
  C        23.8444440185       18.9046102916       11.4061088034
  C        22.8520304157       17.9357706573       11.6604347116
  C        23.1068740355       16.9696000413       12.6520663282
  C        24.3219306942       16.9478086834       13.3358251742
  C        21.5781763514       17.9186705017       10.8967643475
  C        21.5776032529       17.8899364513        9.4743452067
  C        22.7821591416       17.7555863835        8.7143442903
  C        34.4214245981       17.2178314569       13.9098615500
  C        35.7140486774       17.1442390975       13.1698434236
  C        35.9024178790       16.1844840716       12.1630905929
  C        37.0858879244       16.1578000889       11.4298657242
  C        38.1118228194       17.0896890238       11.6821472820
  C        37.9257856831       18.0271224870       12.7167073573
  C        36.7412710304       18.0589165812       13.4480979753
  C        39.3672032668       17.0935392911       10.8969173996
  C        39.3667187896       17.1155163924        9.4748948904
  C        38.1621523390       17.2409769689        8.7137476375
  C        20.3311970089       17.9103572372        8.7654810666
  C        20.3532231961       17.9274864229       11.5788156567
  C        34.4806308862       17.2476718825        2.1836111672
  C        35.7825752540       17.1755567301        2.9076413854
  C        35.9925119312       16.1907769058        3.8847044662
  C        37.1773023852       16.1690698595        4.6146063787
  C        38.1795320192       17.1321773918        4.3879254332
  C        37.9753738719       18.0926873716        3.3796871826
  C        36.7886723510       18.1190518678        2.6517192795
  C        39.4240891168       17.1464713468        5.1869276464
  C        39.3960932916       17.1434617032        6.6080407904
  C        38.1761525489       17.2520116396        7.3472410626
  C        35.1279010241       26.6591503225        7.2999407297
  C        35.1445485322       26.6855164578        4.4912881866
  C        26.5856989403       17.7950123195        2.3639237192
  C        25.2682838246       17.8421723666        3.0628166851
  C        25.0048843422       18.8405491753        4.0124059381
  C        23.7812377376       18.8699536103        4.6749285286
  C        22.7937521647       17.8987732082        4.4145406968
  C        23.0520690220       16.9257059188        3.4321908830
  C        24.2751180637       16.8961759499        2.7651831124
  C        21.5285020623       17.8800809648        5.1843701139
  C        21.5520923376       17.8670207885        6.6059751658
  C        22.7696806936       17.7432079639        7.3481664786
  C        14.0468044089       17.8277635243        2.2947388064
  C        15.3508623625       17.8815019949        3.0212658502
  C        15.6096236785       18.8823861707        3.9707868437
  C        16.8185091609       18.8991559894        4.6642060788
  C        17.8031351867       17.9177824020        4.4305186381
  C        17.5490670674       16.9411142141        3.4489735744
  C        16.3397461990       16.9197593602        2.7571811253
  C        19.0723003909       17.8961554758        5.1996200382
  C        19.0709782661       17.8917999752        6.6221980406
  C        17.8638344201       17.7966578729        7.3836727294
  C        46.8062963458       17.2205744657        2.1661833957
  C        45.5196283663       17.1635897476        2.9174905647
  C        45.3157647050       16.1883913781        3.9059610828
  C        44.1369907262       16.1740086183        4.6467357670
  C        43.1322828646       17.1350657997        4.4209082594
  C        43.3342324266       18.0911282214        3.4070594339
  C        44.5136153788       18.1093323750        2.6672184549
  C        41.8786956663       17.1450851472        5.2084825436
  C        41.8798939348       17.1337451098        6.6303538047
  C        43.0863650489       17.2237455097        7.3932366645
  C        20.3176943909       17.8982320940        7.3306692661
  C        20.2965927264       17.8743037733        4.5174065471
  C        46.7832994245       17.2286354951       13.8869381665
  C        45.4768767469       17.1151132364       13.1782326863
  C        45.2603708555       16.1151880154       12.2179334747
  C        44.0705031654       16.0822668607       11.4949659307
  C        43.0672204341       17.0457005798       11.7158792997
  C        43.2730258308       18.0133783030       12.7169222762
  C        44.4644137567       18.0531824897       13.4344819914
  C        41.8220931028       17.0666222500       10.9166780185
  C        41.8510229378       17.0918564982        9.4959176908
  C        43.0725624875       17.2017939142        8.7594854489
  C        46.1533161691       26.6372478115        8.7212231059
  C        46.1626411591       26.6562237304       11.5308545705
  C        14.0456215539       17.8315189264       13.7038841155
  C        15.3669964281       17.9045744164       13.0141221892
  C        15.6417891533       18.9180048685       12.0838118835
  C        16.8713155521       18.9530114990       11.4297817342
  C        17.8535998755       17.9737390745       11.6803514179
  C        17.5858021941       16.9896935018       12.6492585865
  C        16.3583674875       16.9540837924       13.3067083809
  C        19.1208265954       17.9447083599       10.9115934925
  C        19.0962270678       17.9158950136        9.4901970472
  C        17.8761742776       17.8074285402        8.7496866544
  C        28.8128537824       14.0853906982        2.3676191598
  C        28.2094478786       12.9127081797        3.0617959134
  C        28.9239442066       12.2029809739        4.0376908633
  C        28.3294990297       11.1271513988        4.6925146312
  C        27.0057141189       10.7405362440        4.3998555489
  C        26.3133364196       11.4335965993        3.3903563200
  C        26.9058962307       12.5075368337        2.7318884295
  C        26.3357386292        9.6621755101        5.1625773333
  C        26.3119981762        9.6930312206        6.5836849501
  C        26.8049685652       10.8107689599        7.3290671539
  C        32.1536376857       21.2719741537        2.1493943077
  C        32.7374096834       22.4447620205        2.8658623004
  C        31.9886984328       23.1164814771        3.8439922033
  C        32.5582128048       24.1557066363        4.5739755945
  C        33.8914364084       24.5482137645        4.3464263579
  C        34.6210803264       23.8962805946        3.3347925319
  C        34.0538267841       22.8533100002        2.6061479962
  C        34.5251942216       25.6177718501        5.1494576545
  C        34.5248983005       25.5827048616        6.5706494658
  C        34.0136123130       24.4673947918        7.3067781903
  C        25.7011614713        8.6149390384        7.3019030450
  C        25.7034154723        8.6081587559        4.4891800484
  C        32.1043825453       21.2314687286       13.8815478893
  C        32.6979458925       22.3806494037       13.1357470881
  C        31.9567832629       23.0559179208       12.1535706191
  C        32.5376774726       24.0836410370       11.4145537140
  C        33.8735923837       24.4680615754       11.6420389472
  C        34.5982388503       23.8071471392       12.6521438175
  C        34.0221460613       22.7724867066       13.3848547813
  C        34.5112487532       25.5511539175       10.8589583620
  C        34.5163567777       25.5494177117        9.4373159238
  C        34.0087899576       24.4519286198        8.6732550876
  C        40.6155595902       17.0963716037        8.7693174662
  C        40.5897074824       17.0848525785       11.5787147801
  C        28.7256378526       14.0984376741       13.7758012359
  C        28.1203848430       12.9482902670       13.0422665902
  C        28.8562660960       12.2463454420       12.0749322599
  C        28.2770736722       11.1826774958       11.3869693939
  C        26.9459579146       10.7939301393       11.6403049421
  C        26.2282724983       11.4822739604       12.6365835661
  C        26.8057102940       12.5456855966       13.3272296000
  C        26.3054232397        9.7000043369       10.8712644412
  C        26.2988570548        9.7117838769        9.4493551768
  C        26.7969138940       10.8199864235        8.6946716188
  C        18.1355425489        3.1812081052        2.3223321816
  C        17.4063318272        4.2784258842        3.0209094121
  C        16.3903501637        4.0001489651        3.9481797697
  C        15.7426899628        5.0401690588        4.6116497753
  C        16.0949425111        6.3838513112        4.3722198422
  C        17.0846327666        6.6533146979        3.4087615970
  C        17.7336785050        5.6159279578        2.7437345548
  C        15.4705547844        7.4915161315        5.1352536851
  C        15.4856879504        7.4907159922        6.5569596301
  C        16.1873312379        6.4971517492        7.3101128632
  C        42.9460235462       31.8596540801        2.0780672686
  C        43.6464733948       30.7719844247        2.8219711621
  C        44.5918049874       31.0933423875        3.8082216234
  C        45.1975763061       30.0878075546        4.5558571234
  C        44.8714074668       28.7347081701        4.3408166332
  C        43.9458902548       28.4203370933        3.3273209037
  C        43.3370222820       29.4254605855        2.5793051753
  C        45.4889110650       27.6553846737        5.1440241223
  C        45.4929682598       27.6809864646        6.5657201017
  C        44.8059675471       28.6890896847        7.3123475002
  C        14.8565645093        8.5631054988        7.2693282674
  C        14.8753111325        8.5633024664        4.4566685674
  C        42.9465503945       31.9617710456       13.8038675034
  C        43.6919198561       30.8856444021       13.0904915432
  C        44.6561579536       31.1915841057       12.1178510097
  C        45.2777470503       30.1720072593       11.4001611258
  C        44.9543670927       28.8216452544       11.6381009759
  C        44.0213631057       28.5239670766       12.6493342414
  C        43.3930623440       29.5407128248       13.3615021093
  C        45.5632972121       27.7242164175       10.8528220941
  C        45.5334790132       27.7174815084        9.4315220795
  C        44.8272272316       28.7077339144        8.6785315669
  C        35.1232224904       26.6421421556        8.7343534407
  C        35.1262714645       26.6053115472       11.5442545031
  C        18.1486910862        3.2471656502       13.7014921591
  C        17.4302008354        4.3439511361       12.9921784582
  C        16.4148545611        4.0527094130       12.0687319823
  C        15.7665909434        5.0833585320       11.3933506025
  C        16.1214144992        6.4285795696       11.6159572445
  C        17.1129856643        6.7119263923       12.5730274630
  C        17.7606401248        5.6830037605       13.2527941399
  C        15.4908228800        7.5242457940       10.8435494755
  C        15.4966517894        7.5075700231        9.4224176148
  C        16.1935316589        6.5059447834        8.6757187464
  H        10.6722216512       12.4654269172       11.8998859212
  H        11.6944340170       10.5505818786       10.6580570732
  H        15.3919108247       11.1690874097       12.7665969340
  H        14.3514859953       13.0718905627       14.0117760545
  H        13.3756977627       11.6309472030        9.1962647000
  H        50.3228335341       22.7484789440       11.9818376035
  H        49.3197175293       24.6229802347       10.6758143079
  H        45.6422055676       24.1611920218       12.8586170141
  H        46.6631068156       22.2901406420       14.1668086671
  H        47.6296464522       23.5758188048        9.2412073374
  H        14.8724395607        8.5884598891       12.6034838090
  H        50.2870610134       22.7025136339        4.0655053994
  H        49.2691354428       24.5754065837        5.3655891768
  H        45.6105460770       24.1092495341        3.1511786987
  H        46.6526412923       22.2538563907        1.8369039366
  H        47.6075813042       23.5517220020        6.8020459339
  H        40.6659334048       17.1413204371        3.4380666710
  H        48.6870547016       14.0948778575       15.7948582790
  H        10.6811512613       12.4661895805        4.0979145605
  H        11.6894796643       10.5242685085        5.3015685209
  H        15.3939690205       11.1597262811        3.2114395287
  H        14.3653961991       13.0880784797        1.9961661977
  H        13.3754224652       11.6219694830        6.7582583864
  H        47.9301707548       14.2179364846        1.7159952129
  H        47.7800497584       14.3735160212       14.4900409056
  H        49.0842468434       18.5526383124        2.8726314386
  H        10.4159844575       14.1343304086        0.0038240586
  H        24.4810690400        3.0336886514       11.9043053711
  H        25.6176820120        4.8931942715       10.6772090181
  H        23.2438173824        7.7577326284       12.8354131284
  H        22.1260406237        5.8886991121       14.0648778975
  H        23.8153787392        5.7940879168        9.2476475281
  H        36.3707984174       32.1866972228       11.9699582765
  H        35.2472318372       30.3592986466       10.6916889107
  H        37.5251150075       27.4402014640       12.8811180070
  H        38.6276951226       29.2804325203       14.1688253207
  H        37.0275061595       29.4526160004        9.2742535059
  H        25.7260601375        8.6218030571       12.6370489147
  H        36.4624452534       32.2564336477        4.1159983600
  H        35.3404945437       30.4468161858        5.4158774404
  H        37.5077790682       27.4946090424        3.1582810874
  H        38.6057404809       29.3165431114        1.8470385656
  H        37.0383735194       29.4794549999        6.8356266294
  H        46.1097087969       26.5876916962        3.3907375914
  H        44.6684430818       35.1163068196       15.8088938450
  H        24.4457724632        3.0372657359        4.0828780556
  H        25.5859526640        4.8744725701        5.3288214547
  H        23.1834917108        7.7677597536        3.2428794540
  H        22.0548559020        5.9188488630        1.9964022748
  H        23.8053905290        5.7910882987        6.8094130302
  H        44.9543410851       34.3907511042        1.7004282679
  H        44.9021334652       34.2070565262       14.4854395501
  H        40.6667965346       33.2098482437        2.8585115625
  H        23.1506299428        1.9584096677        0.0096064900
  H        25.8205066098       19.6385984756       11.8982375396
  H        23.6497993906       19.6774927598       10.6655383432
  H        22.3532213211       16.2121776322       12.8579901010
  H        24.5281934429       16.1882387763       14.0863528033
  H        23.7218599261       17.6312113599        9.2445392187
  H        35.1046958247       15.4730999704       11.9618775778
  H        37.2299318607       15.4055644468       10.6573870272
  H        38.7099951156       18.7541820596       12.9173032205
  H        36.5822045328       18.7975650202       14.2303360947
  H        37.2204141739       17.3586629696        9.2418947784
  H        20.3597851412       17.9726203137       12.6664895278
  H        35.2078004093       15.4607086634        4.0690287035
  H        37.3393791382       15.4020717424        5.3687880784
  H        38.7434951270       18.8422849785        3.2008722935
  H        36.6091122915       18.8774416332        1.8932867654
  H        37.2452684218       17.3765389921        6.8017101705
  H        35.1128248954       26.7158420081        3.4038524234
  H        28.5038627327       21.0832190772       15.9847685731
  H        25.7715755276       19.5848769275        4.2147701372
  H        23.5758286176       19.6486711906        5.4062128845
  H        22.2982871562       16.1686783639        3.2256488460
  H        24.4908181852       16.1332097546        2.0210607692
  H        23.6999872776       17.6086767099        6.8044899258
  H        28.9899275351       21.7172935122        1.7802330934
  H        29.1641177029       21.7434126587       14.6294170138
  H        32.1083104716       18.5538334090        2.9863134124
  H        27.3875322433       19.0670050976        0.0956153538
  H        14.8530008573       19.6429920471        4.1501554887
  H        17.0151637105       19.6817509615        5.3938699065
  H        18.2984990657       16.1753890495        3.2592721458
  H        16.1324318640       16.1522883876        2.0152478783
  H        16.9209683118       17.6828801686        6.8566364406
  H        46.0978866334       15.4546423071        4.0861823418
  H        43.9787851859       15.4089631615        5.4036557684
  H        42.5668039016       18.8415357402        3.2288715275
  H        44.6857063251       18.8612849680        1.9006890913
  H        44.0294765713       17.3431132836        6.8675857731
  H        20.2908117553       17.9070018410        3.4293487199
  H        46.0409067052       15.3793800866       12.0383659202
  H        43.9062452476       15.3075821097       10.7491176324
  H        42.5029274206       18.7611506501       12.8945647687
  H        44.6450389917       18.8203615671       14.1834286094
  H        44.0051646343       17.3030815848        9.3068869379
  H        46.1996881624       26.6828404084       12.6182905806
  H        52.7411997044       21.0626100200        0.1997929785
  H        14.8819256162       19.6718153938       11.8897370252
  H        17.0835022989       19.7416152077       10.7110377512
  H        18.3356753960       16.2273891805       12.8504749117
  H        16.1361366067       16.1812398802       14.0384713049
  H        16.9425504045       17.7017459599        9.2939713648
  H        52.3225655605       21.6732994920       14.2891107864
  H        52.0132298143       21.7020247854        1.5007574473
  H        49.0668735196       18.6072495746       13.1991145087
  H        13.2477391269       19.0160243319       15.9724595322
  H        29.9385597284       12.5135092112        4.2759688249
  H        28.8863416861       10.5759185036        5.4470316683
  H        25.2900808494       11.1467069163        3.1569715097
  H        26.3677223760       13.0636816494        1.9683610073
  H        27.1649971598       11.6820994360        6.7900018103
  H        30.9652924336       22.7974778992        4.0271463123
  H        31.9737097398       24.6776943472        5.3284963511
  H        35.6526833628       24.1913621335        3.1540887844
  H        34.6221906776       22.3224694762        1.8459479321
  H        33.6486988884       23.6045678900        6.7570714771
  H        25.7397735577        8.5854164311        3.4014303450
  H        30.9251698268       22.7595940231       11.9789194049
  H        31.9562280785       24.6092099786       10.6601140861
  H        35.6322086032       24.0937485720       12.8329388737
  H        34.5862099534       22.2397548464       14.1469637700
  H        33.6405109356       23.5767450444        9.2007678186
  H        40.5807457117       17.0403456907       12.6661278585
  H        32.5195655623       14.1459613236        0.2565827358
  H        29.8857731333       12.5405493917       11.8831957328
  H        28.8558476875       10.6347045402       10.6465605998
  H        25.1986301778       11.1949880017       12.8397446050
  H        26.2481497681       13.0915655306       14.0846462246
  H        27.1495876949       11.6985862467        9.2265412303
  H        33.2865679552       14.1895622887       14.4182182490
  H        33.4130604905       14.3998431261        1.6074873439
  H        32.1630882162       18.5723634659       13.2148327552
  H        30.2330554441       14.1911083775        0.0649049211
  H        16.1180204023        2.9636803524        4.1343620334
  H        14.9530404779        4.8209015752        5.3271192902
  H        17.3674342711        7.6861434163        3.2159443006
  H        18.5160173404        5.8185699821        2.0162034579
  H        16.7540777102        5.7399588701        6.7766074228
  H        44.8279423347       32.1404380646        3.9825361548
  H        45.9373306331       30.3416267278        5.3118896471
  H        43.6835548539       27.3782202559        3.1569362774
  H        42.6007237535       29.1900977699        1.8143439187
  H        44.2307962105       29.4369874352        6.7740325636
  H        14.8517613790        8.5466719512        3.3684440417
  H        44.8994626244       32.2342801288       11.9261675580
  H        46.0244300038       30.4133054837       10.6467248034
  H        43.7649101778       27.4841900305       12.8413178822
  H        42.6470564675       29.3179006053       14.1204242042
  H        44.2688859926       29.4707583381        9.2130849646
  H        35.0902703647       26.6130140817       12.6319836194
  H        36.6052277741       35.1343909592        0.1855865265
  H        16.1436324286        3.0131570752       11.8991098557
  H        14.9741672628        4.8565909857       10.6833500330
  H        17.3967151944        7.7473653848       12.7497451305
  H        18.5437359554        5.8934728715       13.9773173688
  H        16.7651450327        5.7558328137        9.2141509015
  H        36.2789026175       34.4826645532       14.2679022942
  H        36.3814411798       34.2091108307        1.5043101656
  H        40.5812527910       33.2034736312       13.1481663314
  H        17.4710409000        1.9481988978       15.9690222164
  H        28.9735363192       19.1675769686        4.4767001512
  H        29.6202795919       19.8834179596       11.6704624793
  H        31.4227073984       15.4715636532        4.4559178658
  H        27.9919543686       17.5740930438        6.5959976971
  H        31.4723464386       19.8018289243        9.4153187042
  H        28.9686675458       16.4880715656        9.2126410790
  H        18.8536229031        0.8690303957        4.3404508197
  H        40.5280119075       35.2290101202       11.9468020576
  H        42.3255318088       34.4203947940       11.5846462078
  H        22.0876414946        0.6920455027        4.3570342149
  H        11.5970705205       18.7129426541        4.3875023585
  H        52.2650368939       18.4310725306       11.6723482540
  H        49.2555105335       16.4767748016       11.5789961836
  H        10.1503976931       15.7980733232        4.2977088711
  H        50.8501081877       17.6924744473       11.9491598878
  H        10.0462306829       17.3943755756        4.0570540098
  H        20.2148542937        0.0022612540        4.0470681908
  H        39.1838618002       36.1245414383       11.6812621993
  H        32.2881833388       18.0707471451        6.7923657879
 Ni        30.7446144100       17.9310673386       10.9054966211
 Ni        30.9068966314       15.8824686381        7.6597467133
 Ni        29.8849926570       18.5285650983        7.8345889928
 Ni        30.1359105538       17.2618208659        5.1643969682
  O        10.6499496370       14.3651388681       13.4807082137
  O        12.6131657111       14.6575117568       14.5787835645
  O        49.1479244707       16.8459234549       15.9845486278
  O        50.3502516473       20.9359650518       13.6430074290
  O        48.3485413838       20.5933225132       14.6608106418
  O        11.0515883972       17.0539436212       14.4956050308
  O        50.3209677022       20.8816498994        2.4119597617
  O        48.3467032998       20.5867745108        1.3322089068
  O        49.5437638596       18.2484215895        2.0733280340
  O        12.3590954334       18.6246460766        0.0048410566
  O        48.6932732679       14.1485704708       14.7461760836
  O         8.2098733423       14.2103725004        1.3276547770
  O        10.7353247402       14.5067504077        2.6694417817
  O        12.5717746407       14.5828109652        1.3335931337
  O        22.8450981974        2.0444180687       13.4817818027
  O        21.6060622939        3.5928745197       14.5840533072
  O        42.0585412551       34.1378009119       15.9738349317
  O        37.9818447668       33.1386138124       13.5676984433
  O        39.2186656832       31.5766820465       14.6622201305
  O        20.3087109290        1.0401312039       14.4971222209
  O        38.0252475067       33.1875334082        2.4197363321
  O        39.2190953961       31.5839815163        1.3319512656
  O        40.6524422193       33.7696242538        2.0652943558
  O        18.2554861265        1.3767076792        0.0018573432
  O        44.6221945606       35.1006249996       14.7536886666
  O        24.2054714302        0.0000160541        1.3258363775
  O        22.7532310768        2.0577132870        2.5888774750
  O        21.6249248922        3.5964348943        1.3485147504
  O        27.4950979503       18.7530743550       13.4969077204
  O        26.7670051390       16.9307906429       14.6512521243
  O        30.6670436277       19.4082877684        0.0807970153
  O        33.5393446611       16.3302998989       13.6475799899
  O        34.2752435818       18.1796691056       14.7377307866
  O        29.5710469294       17.0728602710       14.5791665990
  O        33.6259623277       16.3297223292        2.4098000927
  O        34.3043685877       18.2528884223        1.4112796893
  O        31.6566962647       18.3141402273        2.1605546412
  O        30.3246064568       15.1581369360        0.0773617168
  O        28.5533222016       21.0356814205       14.9044916673
  O        28.5102868352       20.9536738002        1.4168424809
  O        27.4917088007       18.6112684440        2.7357656686
  O        26.6938507124       16.9298599280        1.4193814886
  O        13.1494841941       18.6927262663        2.5927205869
  O        13.9193410926       16.9160672967        1.4100183943
  O        50.5961637443       19.3502123716        0.0255401010
  O        47.6834047285       16.3271179153        2.4224268791
  O        46.9517019520       18.1759115392        1.3297704993
  O        11.0698080405       17.0155090991        1.4947901964
  O        47.6756005366       16.3355114058       13.6482949517
  O        46.9260396153       18.2357702867       14.6589823032
  O        49.5686002414       18.3177312341       13.9771458977
  O        10.3186102313       15.1001795096        0.0021693655
  O        52.6707791368       21.0278690183        1.2469312666
  O        12.1468323741       20.8911838829       14.6681331313
  O        13.1084099263       18.6135667606       13.3204664144
  O        13.9569763455       16.9869113052       14.6605512515
  O        30.0024016364       14.4369372118        2.6690271616
  O        28.0793671802       14.6577875564        1.4888797809
  O        32.1384277647       16.8616859694        0.0789597103
  O        30.9520533604       20.9539548817        2.4222082619
  O        32.9201296573       20.6541105297        1.3315927051
  O        29.5709228588       17.0722258559        1.5794854336
  O        30.8737794183       20.9527121311       13.6618512507
  O        32.8794761913       20.5856604353       14.6612007590
  O        31.6782817230       18.2613878049       13.9955644662
  O        28.2760732533       18.6752211963        0.0936686903
  O        32.4968209256       14.2117924100        1.3307444970
  O        32.3990520969       14.2194997862       14.8124473428
  O        29.8811240075       14.5091676678       13.4074478091
  O        28.0449565085       14.5852764546       14.7424270499
  O        17.8892142667        1.9667149663        2.6678814103
  O        18.9562972779        3.5272058101        1.4130729109
  O        39.1687019052       34.1389960657        0.0022800219
  O        43.2802569145       33.0590262176        2.3368512648
  O        42.0345948031       31.5064691524        1.2467802592
  O        20.3180377462        1.0371604498        1.4849325814
  O        43.2760782854       33.1826860237       13.5697740850
  O        42.0052967194       31.5841650756       14.5778729264
  O        40.5791362718       33.7752925602       13.9308934232
  O        22.3676120558        1.3849851185        0.0029977152
  O        36.6727374256       35.0999624175        1.2382526636
  O        16.4456801559        0.0644661096       14.6631815748
  O        17.9365322267        2.0434512606       13.3212855829
  O        18.9191355585        3.5931903798       14.6608172730
  O        29.7865451113       19.0459442596       12.1392185570
  O        29.7879940874       18.9006786522        4.0066111728
  O        31.0512932300       16.4315614055       12.0750319951
  O        31.4385213093       16.3304731110        3.9909039959
  O        29.8588891569       16.8571705090        9.0727750295
  O        29.9298144746       15.6656005708        6.1704977229
  O        31.3783400084       17.7323300018        6.8287162322
  O        30.6235750619       19.3368629200        9.5013080558
  O        28.6606664542       18.2542864168        6.4094437432
  O        39.4568370138       35.2438585778       11.9968517614
  O        19.1413851526        0.0045260455        3.9956495031
  O        41.9696554935       35.1729998966       12.0821038279
  O        21.6912709810       -0.0692663665        3.9011220646
  O        51.3651767827       18.6143126574       12.0003237490
  O        10.7512442285       18.7472095003        3.9099937458
  O        50.0797448689       16.4128162958       12.0866013706
  O         9.5245371590       16.4830014736        3.9963204291
 Zr         9.2970492856       16.0527515540       14.1772727517
 Zr        49.8364031331       16.0065972168        1.7514644445
 Zr        22.0738057021        0.0310494712       14.1836461858
 Zr        42.4613744559       35.1543636246        1.8063738224
 Zr        29.5937000950       19.1048909573       14.3258942534
 Zr        29.5763516523       19.1665665375        1.8946796375
 Zr        11.0383659552       19.0517774454        1.8328039947
 Zr        11.0441071960       19.1547595040       14.2458808624
 Zr        31.3592561284       16.0941195441        1.8687381688
 Zr        31.3872773274       16.0352049667       14.2849514239
 Zr        18.6017056371       -0.0000287338        1.7681486537
 Zr        18.5070525669       -0.0064920175       14.2089228197
 Zr        12.3023127962       16.3235066694       15.9852201066
 Zr        48.6165668183       18.8329941827        0.0151253259
 Zr        20.3162299916        2.4749216057       15.9854477502
 Zr        40.6446275337       32.6882822606       15.9733264445
 Zr        28.3392181875       16.3403012988        0.0932937526
 Zr        32.6328271559       18.8510852567        0.0747697093
  H        30.5229840917       15.6887600603       11.7264990628
  H        32.0344243533       17.5838085215       10.3450241646
  H        32.1810442646       15.0470987741        7.6147496933
