     572
 i =      238, E =     -4777.6803381998
  C        11.8557133153       14.0507485414       13.7365249528
  C        12.4509394845       12.8870722629       13.0171286866
  C        11.6967068349       12.1670799928       12.0783622797
  C        12.2710370822       11.1036876233       11.3860123187
  C        13.6122073508       10.7341260262       11.6105544072
  C        14.3481717016       11.4391583173       12.5808792890
  C        13.7771643554       12.5050082752       13.2725793906
  C        14.2498329614        9.6422852591       10.8371610996
  C        14.2416775010        9.6478610311        9.4154376950
  C        13.7262985786       10.7486816833        8.6611981505
  C        49.1256969767       21.2336973662       13.8735887355
  C        48.5468681432       22.4000274401       13.1443029989
  C        49.2944082310       23.0656458469       12.1601644807
  C        48.7255996009       24.1028401146       11.4251959898
  C        47.3954097994       24.5050839407       11.6551972545
  C        46.6669786280       23.8578091718       12.6717220802
  C        47.2311402686       22.8146556232       13.4025261665
  C        46.7623259321       25.5817623575       10.8577266282
  C        46.7453960763       25.5506832531        9.4359342425
  C        47.2466963657       24.4368903105        8.6914521013
  C        14.8450786401        8.5610874951        8.7022995256
  C        14.8831947088        8.5919233636       11.5138623443
  C        49.1106939639       21.2040137610        2.1498536645
  C        48.5201098940       22.3647190422        2.8744441129
  C        49.2549702440       23.0333767925        3.8651521240
  C        48.6711752113       24.0655300272        4.5944181168
  C        47.3373226077       24.4514728573        4.3567966674
  C        46.6214599369       23.7991537415        3.3348901000
  C        47.2026326857       22.7661991311        2.6050144043
  C        46.6907160809       25.5217240581        5.1478151426
  C        46.7068247152       25.5190471749        6.5695277081
  C        47.2300701227       24.4227986039        7.3250065602
  C        40.6149777373       17.0935034530        7.3195334018
  C        40.6294170285       17.1123071720        4.5095147835
  C        11.8808688211       14.0842858224        2.2911149537
  C        12.4664004030       12.9059503578        2.9938159865
  C        11.7053951573       12.1732587643        3.9175584478
  C        12.2680698273       11.0884595064        4.5854082281
  C        13.6064470817       10.7119760167        4.3555443401
  C        14.3477273663       11.4268511700        3.3966941813
  C        13.7862050004       12.5103122243        2.7244006910
  C        14.2371484495        9.6138162707        5.1263475923
  C        14.2349509630        9.6335364965        6.5482436124
  C        13.7245579490       10.7423556097        7.2951423828
  C        22.5117887435        3.2456226443       13.7461616722
  C        23.2247128778        4.3506066615       13.0438341608
  C        24.2212423592        4.0700142721       12.0971065870
  C        24.8477583892        5.1087275035       11.4131063549
  C        24.4936357071        6.4512056527       11.6544575059
  C        23.5246567632        6.7232465817       12.6377175214
  C        22.8937843308        5.6863857209       13.3205645532
  C        25.1007033942        7.5571342294       10.8780550533
  C        25.0799881460        7.5475961451        9.4560656726
  C        24.3823604766        6.5464062555        8.7083068815
  C        38.3032060045       31.9308578514       13.8409745371
  C        37.5777403264       30.8419783837       13.1265292752
  C        36.6140721699       31.1470740453       12.1533841025
  C        35.9978022128       30.1278650763       11.4329261377
  C        36.3311601951       28.7790768202       11.6644633337
  C        37.2674871305       28.4812292909       12.6722368587
  C        37.8873226339       29.4991919132       13.3919123001
  C        35.7235340778       27.6888108492       10.8697073505
  C        35.7371766335       27.7091567477        9.4481301583
  C        36.4351306780       28.7128774070        8.7051341282
  C        25.7045634047        8.6173012588        8.7365825897
  C        25.6934167923        8.6346272466       11.5489888755
  C        38.3216906369       31.9628759752        2.1589172167
  C        37.5838101709       30.8940907757        2.8948096671
  C        36.6529849074       31.2123466930        3.8959247785
  C        36.0257963836       30.2010305023        4.6214702419
  C        36.3144925923       28.8447058255        4.3704440924
  C        37.2214207017       28.5362610121        3.3378601711
  C        37.8507038345       29.5445501870        2.6131978634
  C        35.6956001610       27.7522024432        5.1582509524
  C        35.7224149061       27.7419605511        6.5806076050
  C        36.4289153523       28.7280162962        7.3385536204
  C        46.1060349533       26.6093052581        7.2807351047
  C        46.0460385235       26.5645788470        4.4727538164
  C        22.4631524905        3.2554986910        2.2615647875
  C        23.1625087920        4.3629758519        2.9811103771
  C        24.1695505336        4.0750695611        3.9162240831
  C        24.8030751976        5.1038984711        4.6091281809
  C        24.4498925252        6.4504460235        4.3898198876
  C        23.4662994370        6.7316800939        3.4226896319
  C        22.8282679950        5.7031447881        2.7300248259
  C        25.0829630935        7.5474106635        5.1641744641
  C        25.0715543979        7.5420850391        6.5868201845
  C        24.3764176799        6.5451238937        7.3416301308
  C        26.5710940081       17.8291635375       13.7859554029
  C        25.2665010031       17.8756601845       13.0597700074
  C        25.0193991339       18.8570183517       12.0877988684
  C        23.8081602190       18.8731359669       11.3992758218
  C        22.8129147258       17.9091445265       11.6593860984
  C        23.0572547201       16.9510329205       12.6607942853
  C        24.2686390340       16.9311863076       13.3487705365
  C        21.5450534708       17.8853020891       10.8905943268
  C        21.5521806349       17.8591287780        9.4687719126
  C        22.7609899257       17.7279449686        8.7149178946
  C        34.4210935134       17.2248439671       13.9135067684
  C        35.7143095711       17.1563576604       13.1701717230
  C        35.9087591674       16.1892079722       12.1715082465
  C        37.0908628312       16.1647660669       11.4355092690
  C        38.1110941359       17.1062756901       11.6762556363
  C        37.9187886479       18.0525506421       12.7014613647
  C        36.7351354973       18.0818835002       13.4355410076
  C        39.3655728714       17.1081472141       10.8878101662
  C        39.3602041547       17.1186622567        9.4654097195
  C        38.1531525695       17.2415740769        8.7076436792
  C        20.3093722180       17.8797580369        8.7550598151
  C        20.3181540724       17.8822925777       11.5680704674
  C        34.4356565444       17.2424737013        2.1922424611
  C        35.7379838840       17.1440381795        2.9144066461
  C        35.9401731953       16.1699434854        3.9036093128
  C        37.1306961112       16.1396285452        4.6261418846
  C        38.1484383906       17.0827112458        4.3811933791
  C        37.9523288575       18.0290207982        3.3575906816
  C        36.7614748101       18.0640586444        2.6377957323
  C        39.3978499120       17.0990881956        5.1753246545
  C        39.3768141317       17.1153872482        6.5970857384
  C        38.1608081286       17.2386920057        7.3409599581
  C        35.0960938742       26.6633799010        7.2897570389
  C        35.0842909374       26.6897367372        4.4806183840
  C        26.5836121302       17.7893035680        2.3712428788
  C        25.2693777637       17.8392958879        3.0710859054
  C        25.0039539597       18.8367789626        4.0210423644
  C        23.7791672456       18.8645281483        4.6813433691
  C        22.7926893806       17.8939247281        4.4163982773
  C        23.0527194289       16.9222443370        3.4330703853
  C        24.2770195985       16.8932040948        2.7696197961
  C        21.5247186118       17.8735112110        5.1809057865
  C        21.5417377533       17.8513822076        6.6021560266
  C        22.7558892935       17.7225007308        7.3487679874
  C        14.0455867638       17.8287072916        2.2904558476
  C        15.3513663075       17.8850194189        3.0109632352
  C        15.6109901741       18.8855804198        3.9602201366
  C        16.8209710015       18.9013222439        4.6509079695
  C        17.8038614806       17.9194770309        4.4132970285
  C        17.5500957634       16.9449339057        3.4300567718
  C        16.3394847867       16.9242485936        2.7414796770
  C        19.0697859452       17.8922051659        5.1850101149
  C        19.0606538520       17.8763837637        6.6069975083
  C        17.8493083958       17.7757260225        7.3614112487
  C        46.8016365066       17.2175179055        2.1634837315
  C        45.5086956360       17.1498537815        2.9066281245
  C        45.3033459940       16.1684859302        3.8890877906
  C        44.1197379383       16.1427416306        4.6226711536
  C        43.1093977758       17.0982916835        4.3971818199
  C        43.3117783491       18.0589436311        3.3874751025
  C        44.4962710571       18.0885790810        2.6547066412
  C        41.8549232891       17.1035446204        5.1865636258
  C        41.8613038450       17.1056529896        6.6091596467
  C        43.0704770180       17.2020473318        7.3673969797
  C        20.3036448162       17.8774749194        7.3209222143
  C        20.2964252559       17.8736613103        4.5078440890
  C        46.7829015129       17.2316536947       13.8820955201
  C        45.4790153848       17.1248098152       13.1648672608
  C        45.2598999908       16.1241468315       12.2056390161
  C        44.0710647533       16.0937990430       11.4800265596
  C        43.0699000955       17.0610512381       11.6954531244
  C        43.2799112937       18.0322679770       12.6925195380
  C        44.4698650246       18.0688707690       13.4133702414
  C        41.8216094342       17.0792896793       10.8991411023
  C        41.8443791376       17.0914376549        9.4775175398
  C        43.0625496256       17.1924094447        8.7342167316
  C        46.1308869101       26.6279100319        8.7153009666
  C        46.1544431603       26.6517555964       11.5247067345
  C        14.0261864768       17.7944756645       13.7014476431
  C        15.3440811737       17.8531475248       13.0066570631
  C        15.6220337353       18.8740784240       12.0851902311
  C        16.8470486859       18.9053304562       11.4241754016
  C        17.8218029823       17.9159932196       11.6615288502
  C        17.5504618889       16.9216197515       12.6187302311
  C        16.3261246821       16.8885650085       13.2821375094
  C        19.0897512681       17.8948030752       10.8954036742
  C        19.0711628127       17.8773916499        9.4741747979
  C        17.8545250062       17.7748820352        8.7276863092
  C        28.8086725617       14.0859699570        2.3659673267
  C        28.2036581241       12.9148263313        3.0613350547
  C        28.9236038825       12.1960024153        4.0264252845
  C        28.3298970551       11.1203041813        4.6820280571
  C        27.0015446548       10.7419799158        4.3998764005
  C        26.3030041071       11.4441695025        3.4011225483
  C        26.8947851630       12.5186489733        2.7424505445
  C        26.3343987331        9.6616110729        5.1626248179
  C        26.3152679609        9.6897423741        6.5838081305
  C        26.8115519238       10.8057925965        7.3295631231
  C        32.0984522122       21.2397709555        2.1944002463
  C        32.6775641588       22.4152535293        2.9083230843
  C        31.9434114571       23.0722728369        3.9081743654
  C        32.5124575653       24.1258724717        4.6186325324
  C        33.8317481732       24.5451820193        4.3549341744
  C        34.5445946085       23.9056380670        3.3233291180
  C        33.9772837480       22.8519356812        2.6107336732
  C        34.4715374536       25.6210202156        5.1455000801
  C        34.4893116290       25.5848820732        6.5668512737
  C        33.9951061622       24.4655226389        7.3084715286
  C        25.7051801095        8.6111263807        7.3018731463
  C        25.7009120992        8.6085759083        4.4890462182
  C        32.1005369706       21.2347030930       13.8811338557
  C        32.6956095261       22.3826248719       13.1333020943
  C        31.9572780430       23.0522143744       12.1450278753
  C        32.5378912991       24.0816169075       11.4077988213
  C        33.8710100877       24.4732035677       11.6409516152
  C        34.5928245141       23.8170554428       12.6564277362
  C        34.0168744483       22.7814155145       13.3883543396
  C        34.5078534837       25.5556130170       10.8552086693
  C        34.5062965977       25.5523424066        9.4334200946
  C        34.0014867576       24.4504152431        8.6745568677
  C        40.6060760812       17.0905249550        8.7548347405
  C        40.5908845144       17.1044648564       11.5653079160
  C        28.7228531205       14.0955155780       13.7769929585
  C        28.1175736784       12.9439900775       13.0459058736
  C        28.8568615990       12.2379380785       12.0842289531
  C        28.2787413709       11.1747568459       11.3950074742
  C        26.9451909296       10.7906416074       11.6417808509
  C        26.2237822081       11.4828203588       12.6325474370
  C        26.8003399894       12.5460175623       13.3245411113
  C        26.3067182931        9.6964629617       10.8715426687
  C        26.3032561989        9.7072562455        9.4496485541
  C        26.8041270065       10.8144453975        8.6952487616
  C        18.1344374026        3.1795177228        2.3222879964
  C        17.4013122026        4.2748247983        3.0195715275
  C        16.3856088510        3.9930813598        3.9461431012
  C        15.7342423239        5.0308195751        4.6094503889
  C        16.0825417635        6.3756133658        4.3706830081
  C        17.0718972893        6.6484747648        3.4077942154
  C        17.7245297525        5.6133477481        2.7427069690
  C        15.4550290343        7.4813137415        5.1339567611
  C        15.4696721869        7.4804509841        6.5557382756
  C        16.1725841906        6.4878781131        7.3090194964
  C        42.9076988377       31.8536077382        2.0781479323
  C        43.5984727237       30.7584158809        2.8209905419
  C        44.5517941861       31.0750447695        3.8015844893
  C        45.1552896641       30.0678716934        4.5483411798
  C        44.8211695605       28.7160406379        4.3376738755
  C        43.8870969502       28.4055928233        3.3306829591
  C        43.2787326306       29.4131157926        2.5843147358
  C        45.4432773306       27.6371712362        5.1391104597
  C        45.4550743001       27.6653677678        6.5609683225
  C        44.7695515751       28.6730525408        7.3096041286
  C        14.8397316599        8.5524987559        7.2680167966
  C        14.8591338880        8.5526382092        4.4552774503
  C        42.9457071456       31.9612351962       13.8040664039
  C        43.6892558716       30.8840548721       13.0893638792
  C        44.6483640565       31.1880051637       12.1110060275
  C        45.2663553653       30.1669911423       11.3919735957
  C        44.9449664230       28.8169012671       11.6343431623
  C        44.0174659739       28.5212922695       12.6512540210
  C        43.3924072352       29.5394414876       13.3644158584
  C        45.5503249971       27.7179686838       10.8479339322
  C        45.5121736566       27.7079808690        9.4267803030
  C        44.7993061419       28.6949884919        8.6756881401
  C        35.1045332796       26.6462001487        8.7245909782
  C        35.1273257139       26.6111832632       11.5345795802
  C        18.1477118917        3.2471642047       13.7016535128
  C        17.4275006948        4.3428988304       12.9925430971
  C        16.4111358348        4.0495299999       12.0708283010
  C        15.7608161117        5.0786093364       11.3951094331
  C        16.1145387290        6.4245130053       11.6154282434
  C        17.1071285098        6.7100223662       12.5708655464
  C        17.7567808488        5.6826204873       13.2511448925
  C        15.4813207571        7.5184104701       10.8425669530
  C        15.4837760281        7.4995289421        9.4213863918
  C        16.1802614022        6.4977067794        8.6746379328
  H        10.6641262237       12.4610871451       11.9037851017
  H        11.6826408031       10.5441490010       10.6619915456
  H        15.3857971806       11.1649958318       12.7598699251
  H        14.3485414540       13.0692750476       14.0057585271
  H        13.3591559645       11.6209135442        9.1942373177
  H        50.3170221281       22.7459079904       11.9742238781
  H        49.3109155855       24.6163016250       10.6654710486
  H        45.6377919808       24.1586315601       12.8565461283
  H        46.6614601929       22.2911610409       14.1668348957
  H        47.6205556435       23.5723460558        9.2324504058
  H        14.8664303665        8.5850591355       12.6022315107
  H        50.2775208248       22.7186715992        4.0605027577
  H        49.2461490223       24.5869785637        5.3564419421
  H        45.5896183020       24.0878249804        3.1458066199
  H        46.6452984459       22.2380917474        1.8350091407
  H        47.5911685939       23.5470641563        6.7933953596
  H        40.6346084912       17.0766751300        3.4217387870
  H        48.6866191862       14.0951435553       15.7948917082
  H        10.6723644216       12.4647252192        4.0935628869
  H        11.6736289984       10.5185403695        5.2962781624
  H        15.3828739999       11.1468343508        3.2123860218
  H        14.3612879607       13.0792471710        1.9976746752
  H        13.3566911190       11.6104621306        6.7564255980
  H        47.9299952499       14.2163806013        1.7162694292
  H        47.7796326305       14.3733598566       14.4902468454
  H        49.0810566113       18.5536312660        2.8715880556
  H        10.4134324467       14.1335539834        0.0045409624
  H        24.4831637325        3.0313777672       11.9078666138
  H        25.6211149027        4.8899073231       10.6799884208
  H        23.2429663294        7.7562538345       12.8310686313
  H        22.1240365211        5.8882195601       14.0614694506
  H        23.8199289156        5.7894816053        9.2471263395
  H        36.3722749048       32.1903547124       11.9646667935
  H        35.2486228734       30.3672270318       10.6814697176
  H        37.5328497219       27.4422670129       12.8565609488
  H        38.6349673192       29.2782213800       14.1499797245
  H        37.0081221276       29.4600476654        9.2465821797
  H        25.7238386045        8.6199742603       12.6370086482
  H        36.4421737097       32.2589532439        4.1037095979
  H        35.3002530311       30.4553271387        5.3910522144
  H        37.4564923081       27.4932855481        3.1359530891
  H        38.5737963898       29.3098485601        1.8357127028
  H        36.9982057747       29.4862661624        6.8086762594
  H        46.0632580237       26.5708020384        3.3846117517
  H        44.6702085328       35.1159690796       15.8048549595
  H        24.4465384034        3.0363797076        4.0816865542
  H        25.5869878432        4.8734289541        5.3274350886
  H        23.1821338544        7.7667675796        3.2442247561
  H        22.0531314791        5.9179124487        1.9980033476
  H        23.8088273435        5.7876211480        6.8089426985
  H        44.9547240022       34.3880220789        1.6986682754
  H        44.9000710661       34.2057696652       14.4833421540
  H        40.6588421444       33.2088137436        2.8544201592
  H        23.1517619320        1.9580107964        0.0091741790
  H        25.7901218752       19.5978502113       11.8866388880
  H        23.6182411630       19.6397189111       10.6510644524
  H        22.2993410241       16.1986072467       12.8690675241
  H        24.4705998275       16.1787375546       14.1073597576
  H        23.6980534109       17.6007817909        9.2490098809
  H        35.1160530078       15.4693274073       11.9806453209
  H        37.2394760450       15.4062810708       10.6699809405
  H        38.6973023380       18.7880590856       12.8934781701
  H        36.5720497782       18.8275008545       14.2103854656
  H        37.2145937760       17.3697348068        9.2390915507
  H        20.3199512865       17.9233720456       12.6558500452
  H        35.1460681102       15.4546980882        4.1053372917
  H        37.2843686658       15.3806171478        5.3900886066
  H        38.7305941354       18.7635079853        3.1609164388
  H        36.5913792249       18.8135367789        1.8686610188
  H        37.2278699034       17.3638018862        6.7988715381
  H        35.0418060878       26.7200641810        3.3934595408
  H        28.5045543157       21.0813093455       15.9785777070
  H        25.7670907858       19.5837631326        4.2262986803
  H        23.5725142698       19.6415138768        5.4140761370
  H        22.2989015531       16.1661700600        3.2233851472
  H        24.4946123057       16.1314432218        2.0248965213
  H        23.6892487425       17.5902833772        6.8096288031
  H        28.9746910523       21.7148349265        1.7963667210
  H        29.1636287369       21.7384997330       14.6212352986
  H        32.0902878816       18.5191359236        3.0064582188
  H        27.3369075809       19.0593629817        0.0976480449
  H        14.8538989538       19.6450908417        4.1420377399
  H        17.0197358013       19.6816921739        5.3823532587
  H        18.2998757385       16.1801007345        3.2382922595
  H        16.1297275624       16.1582160788        1.9988256412
  H        16.9091464305       17.6671453787        6.8285918430
  H        46.0887011874       15.4387368717        4.0716433781
  H        43.9635635718       15.3734924262        5.3758208924
  H        42.5409815223       18.8054654783        3.2073010420
  H        44.6666799355       18.8453216665        1.8924068877
  H        44.0118953552       17.3150664549        6.8373528150
  H        20.2954110898       17.9136266074        3.4200234188
  H        46.0369964917       15.3836812163       12.0300433591
  H        43.9057240119       15.3163363278       10.7372816326
  H        42.5132796112       18.7845093912       12.8663648703
  H        44.6512405860       18.8379330739       14.1602511477
  H        43.9979634478       17.2970152899        9.2762924999
  H        46.1966312994       26.6803152490       12.6119167422
  H        52.7413436076       21.0623866758        0.1995983206
  H        14.8677866253       19.6367637128       11.9052181460
  H        17.0631681659       19.6996034983       10.7129145609
  H        18.2958223225       16.1517372000       12.8073770641
  H        16.1001574451       16.1090329425       14.0057345785
  H        16.9182739046       17.6655551109        9.2668821834
  H        52.3221193129       21.6723529977       14.2885902996
  H        52.0138240558       21.7030770262        1.5000878863
  H        49.0662601914       18.6094048544       13.1994205448
  H        13.2468906282       19.0167036712       15.9705499110
  H        29.9427405316       12.4993863061        4.2541260883
  H        28.8904817937       10.5617983078        5.4284052401
  H        25.2760621464       11.1637342824        3.1762215133
  H        26.3521753146       13.0816512925        1.9871123275
  H        27.1724983537       11.6767124205        6.7903662609
  H        30.9308818847       22.7367319593        4.1223793998
  H        31.9368918569       24.6376043047        5.3869366436
  H        35.5651411636       24.2192629230        3.1134395147
  H        34.5334455304       22.3345215975        1.8324697660
  H        33.6350312838       23.5981373429        6.7633266197
  H        25.7339361593        8.5881291857        3.4011456036
  H        30.9288903542       22.7496551271       11.9617399897
  H        31.9573675608       24.6016557812       10.6488286080
  H        35.6248167604       24.1075981990       12.8422871521
  H        34.5796149552       22.2531563049       14.1545420855
  H        33.6445796142       23.5724056247        9.2051593711
  H        40.5855533621       17.0688463386       12.6530924423
  H        32.5147526964       14.1496951281        0.2537890956
  H        29.8881746942       12.5293588671       11.8983903077
  H        28.8595698871       10.6232473980       10.6588675117
  H        25.1921270721       11.1989331081       12.8301643414
  H        26.2398582702       13.0956895202       14.0770922831
  H        27.1579624141       11.6923885963        9.2275197483
  H        33.2842352940       14.1940123691       14.4166193313
  H        33.4082186190       14.4052803065        1.6046014010
  H        32.1181207581       18.6240500440       13.2087323774
  H        30.2253786223       14.1928865120        0.0706087891
  H        16.1168929183        2.9556341589        4.1320478072
  H        14.9448062065        4.8088380114        5.3243221611
  H        17.3515894803        7.6822506126        3.2155252985
  H        18.5065883443        5.8186828501        2.0156251156
  H        16.7394878055        5.7307668252        6.7755748280
  H        44.7962529850       32.1207827381        3.9718574086
  H        45.9004392866       30.3192362753        5.2998922757
  H        43.6181580803       27.3646717143        3.1631186056
  H        42.5362119839       29.1796779779        1.8247007751
  H        44.1894096752       29.4184491830        6.7730893639
  H        14.8365690245        8.5363766847        3.3670269163
  H        44.8904851085       32.2303332041       11.9157736893
  H        46.0086962507       30.4071011465       10.6338654973
  H        43.7624387878       27.4818780687       12.8470974250
  H        42.6502200626       29.3178620946       14.1274507808
  H        44.2427368478       29.4581345843        9.2119504660
  H        35.0978699766       26.6210713073       12.6225011779
  H        36.6077258502       35.1348229946        0.1898790850
  H        16.1407048133        3.0094970026       11.9029254859
  H        14.9674970109        4.8500689014       10.6866834272
  H        17.3899962705        7.7459706142       12.7459730554
  H        18.5405522208        5.8949159265       13.9744167496
  H        16.7531472796        5.7484659533        9.2129168863
  H        36.2778812676       34.4836682679       14.2682255865
  H        36.3864564342       34.2072325778        1.5048999427
  H        40.5786584330       33.2057579807       13.1437496271
  H        17.4739856568        1.9480740247       15.9717269619
  H        28.7398222422       19.0088158179        4.3790289813
  H        29.8328389131       19.8984625884       11.6648096633
  H        31.2175520393       15.5613368437        4.4742998085
  H        28.3031329765       17.2738806182        6.8787269775
  H        31.6569172704       19.8976551026        9.5769207825
  H        29.1779658801       16.4248117558        9.4478801181
  H        18.9051494037        0.8515403613        4.3697407261
  H        40.5253276536       35.2299444566       11.9460680018
  H        42.3256278318       34.4205797900       11.5834325583
  H        22.0981445818        0.6986013246        4.3473466615
  H        11.5968620855       18.7127051199        4.3874644217
  H        52.2638264754       18.4309458806       11.6697667383
  H        49.2550201438       16.4774331924       11.5780215282
  H        10.1499116869       15.7985713160        4.2974376139
  H        50.8495696799       17.6926184854       11.9492213658
  H        10.0453837113       17.3949130619        4.0569428819
  H        20.2919833631        0.0039817723        4.0391766490
  H        39.1820793685       36.1246731849       11.6809391558
  H        32.4304033242       17.8706793688        8.1479690479
 Ni        30.6951431475       17.8622857347       10.9111612142
 Ni        30.8173787013       16.1316943677        7.4998648315
 Ni        30.0580655948       18.6709160853        8.0714019093
 Ni        29.8877522864       17.2091179449        5.1606658050
  O        10.6476232161       14.3655071016       13.4796895639
  O        12.6101918908       14.6526759851       14.5789944114
  O        49.1471963189       16.8459131302       15.9846212024
  O        50.3494986885       20.9375835147       13.6430313781
  O        48.3482579324       20.5935864819       14.6605993718
  O        11.0481800299       17.0539477303       14.4960148091
  O        50.3182301531       20.8830974348        2.4127028820
  O        48.3459587299       20.5859431745        1.3312999666
  O        49.5427273235       18.2488816120        2.0737357961
  O        12.3594057428       18.6227020439        0.0040503808
  O        48.6929198659       14.1485448056       14.7462388842
  O         8.2096048161       14.2103907577        1.3277328345
  O        10.7343173461       14.5069347730        2.6697570216
  O        12.5711722931       14.5812024187        1.3351220530
  O        22.8450078472        2.0440537199       13.4817089168
  O        21.6059924336        3.5927638942       14.5838989293
  O        42.0589244362       34.1365240034       15.9707683192
  O        37.9810962698       33.1388314339       13.5672327152
  O        39.2169066866       31.5761537047       14.6604470691
  O        20.3089999894        1.0402608695       14.4969344529
  O        38.0248885349       33.1877301757        2.4214105864
  O        39.2142551646       31.5826827440        1.3330512226
  O        40.6520048419       33.7714451429        2.0632477216
  O        18.2580726212        1.3759802288        0.0032656665
  O        44.6227960713       35.1002453774       14.7516562613
  O        24.2060106832       -0.0014013645        1.3264029101
  O        22.7532955628        2.0568050624        2.5883905690
  O        21.6250787942        3.5961987328        1.3482247662
  O        27.4603389365       18.6952889051       13.4910711400
  O        26.6980429416       16.9119387737       14.6694357942
  O        30.6234801187       19.3567239844        0.0847298570
  O        33.5432766261       16.3346191504       13.6524886858
  O        34.2715461695       18.1855518618       14.7412572211
  O        29.5626387163       17.0710207782       14.5755014500
  O        33.5538058926       16.3410355765        2.4186302368
  O        34.2931912451       18.2469845689        1.4133820983
  O        31.6444732239       18.3156495940        2.1675014083
  O        30.3205532768       15.1595046225        0.0760767618
  O        28.5514879545       21.0342699565       14.9027108992
  O        28.5107394457       20.9495167578        1.4175768155
  O        27.4940127864       18.6098495007        2.7411645231
  O        26.6919303271       16.9303239494        1.4262275910
  O        13.1482865770       18.6926804994        2.5918399543
  O        13.9174025165       16.9153160475        1.4078525222
  O        50.5958190246       19.3504869664        0.0263042537
  O        47.6816077247       16.3275315597        2.4228272128
  O        46.9497375201       18.1756731510        1.3307821449
  O        11.0651000905       17.0185211473        1.4957826691
  O        47.6739937479       16.3360717161       13.6473211789
  O        46.9247502549       18.2359654017       14.6581152569
  O        49.5678735521       18.3180732675       13.9768524245
  O        10.3177072585       15.0996005942        0.0026879056
  O        52.6706748050       21.0280537448        1.2467690827
  O        12.1467909944       20.8904775009       14.6676855676
  O        13.1091271495       18.6061575777       13.3265507311
  O        13.9223063357       16.9348409078       14.6468458407
  O        30.0002330683       14.4331157116        2.6653563287
  O        28.0768144609       14.6596638940        1.4873279961
  O        32.0964850265       16.8898502093        0.0766761624
  O        30.9130644092       20.8851096056        2.5066573769
  O        32.8403896245       20.6586420783        1.3328237467
  O        29.5573503316       17.0755797263        1.5738287274
  O        30.8706297713       20.9554196339       13.6632390086
  O        32.8761545660       20.5894182508       14.6630162142
  O        31.6493655163       18.3049055001       13.9955239889
  O        28.2277285530       18.6737891942        0.0906737961
  O        32.4929905179       14.2132942887        1.3296742069
  O        32.3973314829       14.2231259881       14.8121128494
  O        29.8762665027       14.5059753143       13.4078788295
  O        28.0420194649       14.5857862007       14.7423111662
  O        17.8898873885        1.9650145369        2.6685117343
  O        18.9559619579        3.5268991878        1.4138666323
  O        39.1670278661       34.1409882477        0.0040363668
  O        43.2724823483       33.0478737850        2.3302032251
  O        41.9755854152       31.5091245438        1.2602622740
  O        20.3213019683        1.0380109480        1.4833860772
  O        43.2760122261       33.1821450100       13.5693482741
  O        42.0053419426       31.5844322439       14.5790555410
  O        40.5776995620       33.7761679613       13.9274398818
  O        22.3685132303        1.3849177964        0.0022234104
  O        36.6740109914       35.0998897894        1.2408270230
  O        16.4457763487        0.0650203273       14.6629116630
  O        17.9364317433        2.0433198064       13.3215247967
  O        18.9187583380        3.5934703535       14.6605231148
  O        29.7825093317       19.0469474966       12.1377637461
  O        29.6908850376       18.9009301123        4.1653927322
  O        31.1783616286       16.3438815399       12.0732136976
  O        31.2134521439       16.4192953253        4.0005739919
  O        30.0293868973       16.8527196427        9.2530528498
  O        29.9498385032       15.6716586082        6.0711318970
  O        31.7858573474       17.8092522926        7.4190335018
  O        30.7897362406       19.4769210703        9.6823270125
  O        28.8480303825       18.0222547658        6.5762682010
  O        39.4557361924       35.2442616051       11.9966567150
  O        19.2009449587        0.0039754714        3.9933523518
  O        41.9700027892       35.1729883580       12.0813680261
  O        21.7013318332       -0.0693533379        3.9026521859
  O        51.3650634808       18.6143537726       12.0003353788
  O        10.7508814263       18.7474241634        3.9102382524
  O        50.0790009691       16.4131281348       12.0859860471
  O         9.5236900647       16.4833579332        3.9964651415
 Zr         9.2962581692       16.0526488997       14.1759502433
 Zr        49.8341971727       16.0078194472        1.7523188182
 Zr        22.0726390624        0.0309629437       14.1810527303
 Zr        42.4620842718       35.1517283125        1.7957654575
 Zr        29.5570040224       19.0984603711       14.2932005704
 Zr        29.5624022360       19.1515123626        1.8920953287
 Zr        11.0378618854       19.0529461418        1.8335671029
 Zr        11.0435009388       19.1537054164       14.2469775107
 Zr        31.3324299684       16.0965037415        1.8664208219
 Zr        31.3845729545       16.0389960636       14.2671481752
 Zr        18.6066625259        0.0023273000        1.7813198742
 Zr        18.5057165501       -0.0056597985       14.2107870772
 Zr        12.2943480598       16.3170505346       15.9888672301
 Zr        48.6163298343       18.8327844011        0.0151471885
 Zr        20.3152056167        2.4754917008       15.9848982303
 Zr        40.6334582935       32.6914865969       15.9691198831
 Zr        28.3247266908       16.3403739485        0.0805203305
 Zr        32.6063854107       18.8555211122        0.0678299939
  O        30.2556156836       20.2937152481        6.5874519253
  H        31.1938581969       20.5455146151        6.5532786007
  H        30.0996643516       19.8450595095        5.7061350704
  H        30.6436341979       15.5765571658       11.7965797885
