     575
 i =      200, E =     -4794.9156837122
  C        11.8588863769       14.0535459732       13.7364300563
  C        12.4564049511       12.8907071171       13.0180508831
  C        11.7045910072       12.1714728757       12.0767130002
  C        12.2810072106       11.1092913265       11.3843801535
  C        13.6217071164       10.7397992053       11.6118859774
  C        14.3550708402       11.4437999714       12.5848742999
  C        13.7821577137       12.5087891352       13.2763484964
  C        14.2611566874        9.6490678877       10.8385191612
  C        14.2563890397        9.6569113426        9.4168280509
  C        13.7433696303       10.7591329115        8.6629683373
  C        49.1268592737       21.2333164146       13.8745055004
  C        48.5500734671       22.4013671379       13.1475671481
  C        49.2999903630       23.0684428727       12.1663316276
  C        48.7330681555       24.1075778734       11.4331159527
  C        47.4026503129       24.5094730150       11.6619796601
  C        46.6718550204       23.8609234499       12.6758228711
  C        47.2343098017       22.8160307812       13.4051884316
  C        46.7723371048       25.5870852589       10.8646714779
  C        46.7612286118       25.5573950253        9.4429105898
  C        47.2612071720       24.4423143914        8.6994278967
  C        14.8602059501        8.5704987533        8.7035825586
  C        14.8919048983        8.5971355578       11.5151985650
  C        49.1131784504       21.2034123019        2.1504880571
  C        48.5277822610       22.3648468245        2.8776107340
  C        49.2668843495       23.0252521899        3.8708120394
  C        48.6906094890       24.0598731379        4.6022311080
  C        47.3603298195       24.4569368366        4.3637577450
  C        46.6400758673       23.8123909789        3.3398856652
  C        47.2135985567       22.7764484531        2.6081248923
  C        46.7218488953       25.5318882992        5.1547699885
  C        46.7334616102       25.5281807035        6.5764754292
  C        47.2489254775       24.4289958458        7.3328777042
  C        40.6353871621       17.1352269888        7.3219630727
  C        40.6592657459       17.1724536571        4.5130126337
  C        11.8831302098       14.0865699143        2.2906514443
  C        12.4725529477       12.9109520995        2.9950441025
  C        11.7149393390       12.1774519856        3.9208435019
  C        12.2816058379       11.0950339069        4.5892364214
  C        13.6205708456       10.7216371235        4.3576942851
  C        14.3586982384       11.4376182992        3.3973362083
  C        13.7932144686       12.5187698322        2.7246495362
  C        14.2540728718        9.6247669536        5.1280269639
  C        14.2526484677        9.6446431812        6.5498584599
  C        13.7428807713       10.7536413478        7.2969266887
  C        22.5120972243        3.2455748409       13.7462147975
  C        23.2264016225        4.3503888038       13.0435872331
  C        24.2224560075        4.0684336888       12.0967430294
  C        24.8509682758        5.1061481673       11.4128599048
  C        24.4997829774        6.4493591263       11.6544951709
  C        23.5309970485        6.7227858816       12.6376102793
  C        22.8979858957        5.6867887971       13.3202306354
  C        25.1096508229        7.5541805777       10.8780193627
  C        25.0883587206        7.5450681015        9.4559664554
  C        24.3866977546        6.5463882200        8.7085898118
  C        38.3017590638       31.9311171471       13.8453389008
  C        37.5692371109       30.8430843295       13.1378478236
  C        36.6080222229       31.1492587556       12.1625270732
  C        35.9878789954       30.1303633209       11.4453461820
  C        36.3148100968       28.7809222115       11.6821109905
  C        37.2459740393       28.4821199000       12.6943484761
  C        37.8700951110       29.4997990258       13.4106143107
  C        35.7096413253       27.6918288583       10.8845191242
  C        35.7371147684       27.7104839236        9.4633253440
  C        36.4460077063       28.7112949739        8.7268844205
  C        25.7160732477        8.6128857352        8.7362160463
  C        25.7050140427        8.6305722102       11.5484134994
  C        38.3283230484       31.9634088545        2.1613932163
  C        37.6028216246       30.8944464004        2.9048784592
  C        36.6776906236       31.2114440345        3.9113927136
  C        36.0607730807       30.1988435514        4.6430023015
  C        36.3541705140       28.8439186608        4.3907659750
  C        37.2574944289       28.5368725929        3.3547513132
  C        37.8771586103       29.5462006659        2.6247660560
  C        35.7370945043       27.7501914430        5.1750524181
  C        35.7509590890       27.7405403581        6.5969501163
  C        36.4528906769       28.7254441853        7.3603854639
  C        46.1353692430       26.6207756510        7.2866050194
  C        46.0879383731       26.5802733779        4.4787112449
  C        22.4629734180        3.2559442336        2.2615079360
  C        23.1623026763        4.3637766668        2.9810183636
  C        24.1688264804        4.0756322468        3.9165262689
  C        24.8023290915        5.1043970871        4.6095176385
  C        24.4494724694        6.4510005452        4.3900050476
  C        23.4660736584        6.7324688662        3.4227962610
  C        22.8281160277        5.7039129914        2.7299768016
  C        25.0841961541        7.5472878378        5.1639229054
  C        25.0759924662        7.5407825497        6.5866065587
  C        24.3788006068        6.5455836218        7.3419474988
  C        26.5941159014       17.8672891580       13.7858683507
  C        25.2900508054       17.9298942836       13.0560572491
  C        25.0527762202       18.9165940160       12.0868398649
  C        23.8417168396       18.9480740047       11.3975828245
  C        22.8355361056       17.9945113252       11.6540137934
  C        23.0703142332       17.0308546385       12.6525386027
  C        24.2812997128       16.9955877630       13.3405759463
  C        21.5660612825       17.9811510465       10.8863281955
  C        21.5682171903       17.9501904626        9.4642505200
  C        22.7749249469       17.8209993541        8.7066642730
  C        34.4169751172       17.2264693277       13.8788518236
  C        35.7118776056       17.1713451902       13.1370367447
  C        35.9163751621       16.2038471957       12.1402863849
  C        37.1021192910       16.1852849318       11.4108151967
  C        38.1156099697       17.1317261203       11.6600106827
  C        37.9130428085       18.0782713330       12.6817729533
  C        36.7248835831       18.1024567374       13.4084323546
  C        39.3740379293       17.1348285650       10.8813987196
  C        39.3732640590       17.1532130251        9.4602378147
  C        38.1690323248       17.2850459870        8.6992460255
  C        20.3225430108       17.9617063876        8.7544514826
  C        20.3405126812       17.9822381233       11.5669955034
  C        34.4764601208       17.2489300749        2.1849769343
  C        35.7801806362       17.1794743681        2.9071980038
  C        36.0001874246       16.1906988383        3.8772322732
  C        37.1869462283       16.1732935112        4.6037663184
  C        38.1815031817       17.1442890650        4.3785585455
  C        37.9685277245       18.1086874158        3.3766196449
  C        36.7789309820       18.1310098564        2.6533413456
  C        39.4274181240       17.1611139522        5.1748176154
  C        39.4007146183       17.1672359959        6.5953135772
  C        38.1810909705       17.2893418955        7.3329387949
  C        35.1154292564       26.6636987671        7.3001226629
  C        35.1349152060       26.6870674701        4.4912779321
  C        26.5698701259       17.8285871660        2.3314268116
  C        25.2550491772       17.8755525580        3.0357431022
  C        24.9899762695       18.8842726691        3.9740284670
  C        23.7717478704       18.9120378207        4.6465428784
  C        22.7897584545       17.9311311468        4.4037916427
  C        23.0489769723       16.9471951961        3.4325511685
  C        24.2680782433       16.9172989787        2.7583057540
  C        21.5256336216       17.9160111504        5.1753444106
  C        21.5473863008       17.9150767584        6.5968188209
  C        22.7648766491       17.8038299365        7.3406559834
  C        14.0463571948       17.8301166540        2.2920412149
  C        15.3508500622       17.8902469047        3.0139075891
  C        15.6066726845       18.8956992807        3.9592498710
  C        16.8160279726       18.9189668041        4.6505058610
  C        17.8028091986       17.9395870008        4.4183501154
  C        17.5522139759       16.9591716847        3.4398661281
  C        16.3423110982       16.9313085730        2.7500014661
  C        19.0703343882       17.9243583227        5.1878718881
  C        19.0661905908       17.9277957707        6.6101233068
  C        17.8580898718       17.8303784448        7.3698674606
  C        46.8080910668       17.2196961671        2.1638778934
  C        45.5205774161       17.1619775670        2.9120979188
  C        45.3136965181       16.1838419431        3.8965824096
  C        44.1337190148       16.1704252720        4.6349064793
  C        43.1335012378       17.1356992667        4.4092143071
  C        43.3380784861       18.0943791862        3.3989759110
  C        44.5184456678       18.1113259751        2.6615724558
  C        41.8807449795       17.1503232702        5.1957101256
  C        41.8837769647       17.1446672980        6.6171112700
  C        43.0912733437       17.2309842557        7.3791702261
  C        20.3117006795       17.9440739160        7.3199540840
  C        20.2949062175       17.9011623505        4.5070518962
  C        46.7843155303       17.2307873384       13.8849821372
  C        45.4791263658       17.1236380693       13.1717145008
  C        45.2584422098       16.1237126244       12.2125355949
  C        44.0697420293       16.0971887457       11.4870730214
  C        43.0722515665       17.0675057555       11.7040119076
  C        43.2825615609       18.0363449304       12.7028810861
  C        44.4724807060       18.0692569822       13.4231914094
  C        41.8276630357       17.0940206917       10.9040661446
  C        41.8567351545       17.1142172710        9.4831253309
  C        43.0785835023       17.2138502828        8.7456004605
  C        46.1531200497       26.6372172041        8.7211531402
  C        46.1624055096       26.6562204500       11.5307893446
  C        14.0445278402       17.8334963026       13.7036613306
  C        15.3631860800       17.9143906744       13.0118221923
  C        15.6262856290       18.9314928149       12.0819007242
  C        16.8524297342       18.9771900574       11.4229425336
  C        17.8429471993       18.0053599374       11.6688060556
  C        17.5866792805       17.0174110230       12.6370679338
  C        16.3622628613       16.9707511042       13.2993201096
  C        19.1091554684       17.9893251190       10.8989536367
  C        19.0863966303       17.9608015239        9.4777084167
  C        17.8680495192       17.8447924180        8.7359445875
  C        28.8133678315       14.0892972726        2.3638119946
  C        28.2075963810       12.9147440112        3.0588943762
  C        28.9379977026       12.1726282481        3.9983502050
  C        28.3439274021       11.0983021095        4.6567454308
  C        27.0049554883       10.7407325756        4.3984115626
  C        26.2956099819       11.4639577457        3.4229073657
  C        26.8873587110       12.5390891102        2.7643710271
  C        26.3397140378        9.6586993405        5.1615940994
  C        26.3275325609        9.6835476420        6.5826563385
  C        26.8324057274       10.7958538305        7.3280573671
  C        32.1503713059       21.2664982030        2.1558521079
  C        32.7313617124       22.4393988898        2.8735433492
  C        31.9829246888       23.1093576879        3.8528651380
  C        32.5505420757       24.1519927683        4.5794315338
  C        33.8817632225       24.5488761653        4.3482116161
  C        34.6111679373       23.8983458188        3.3353954859
  C        34.0456134809       22.8526898325        2.6096311826
  C        34.5147007141       25.6199539903        5.1499527101
  C        34.5135500767       25.5861645476        6.5713500388
  C        34.0024575470       24.4709774895        7.3078794416
  C        25.7146301570        8.6070314661        7.3013963699
  C        25.7014658415        8.6087047554        4.4882174723
  C        32.1348652427       21.2349831946       13.9169797667
  C        32.7088907334       22.3868749409       13.1586399260
  C        31.9613292667       23.0416009779       12.1676120965
  C        32.5310081520       24.0698311409       11.4191451128
  C        33.8607177504       24.4756796674       11.6465453510
  C        34.5913473176       23.8339403931       12.6648107243
  C        34.0276597464       22.7988955459       13.4054532746
  C        34.4918989788       25.5600568128       10.8596854632
  C        34.5001374841       25.5563632493        9.4379696528
  C        33.9952991630       24.4573812501        8.6743665224
  C        40.6215341100       17.1236170217        8.7558330523
  C        40.5948791748       17.1218340758       11.5654889109
  C        28.7225571007       14.0987068333       13.7766213050
  C        28.1216198564       12.9447365125       13.0451422271
  C        28.8627706014       12.2428114279       12.0819783804
  C        28.2887774078       11.1765603450       11.3940212036
  C        26.9571620356       10.7864635758       11.6417734480
  C        26.2337276311       11.4756170188       12.6332836216
  C        26.8065226659       12.5409255825       13.3251555998
  C        26.3208971308        9.6912373158       10.8710254992
  C        26.3188579223        9.7009816071        9.4489538828
  C        26.8254034693       10.8053891813        8.6937744641
  C        18.1354986248        3.1811107238        2.3222601690
  C        17.4061380476        4.2783292503        3.0207600950
  C        16.3904275817        3.9999816155        3.9483049805
  C        15.7426717095        5.0399299522        4.6118032355
  C        16.0946012624        6.3836637932        4.3721595360
  C        17.0839419841        6.6532354437        3.4083551590
  C        17.7330246127        5.6158823375        2.7433050747
  C        15.4702892358        7.4913182138        5.1352672175
  C        15.4853692751        7.4904890545        6.5569864724
  C        16.1867822748        6.4967770594        7.3101631996
  C        42.9458927827       31.8595830467        2.0779599846
  C        43.6462839477       30.7719040132        2.8219288216
  C        44.5917502442       31.0932317517        3.8080508013
  C        45.1974201618       30.0876829399        4.5557437792
  C        44.8710422267       28.7346210814        4.3408119164
  C        43.9452838557       28.4202848589        3.3275451052
  C        43.3364801231       29.4254281059        2.5794965579
  C        45.4885959689       27.6553094469        5.1439977009
  C        45.4926126917       27.6808710690        6.5656876041
  C        44.8053911121       28.6888453106        7.3122891699
  C        14.8564759496        8.5630139246        7.2693656045
  C        14.8752526650        8.5632490137        4.4567023461
  C        42.9464138190       31.9616256647       13.8039442968
  C        43.6917007325       30.8854779764       13.0904909227
  C        44.6560881531       31.1914120679       12.1180056382
  C        45.2775537414       30.1718375516       11.4002143436
  C        44.9539481850       28.8215086130       11.6379916973
  C        44.0206983443       28.5238358159       12.6489777615
  C        43.3924846174       29.5405806010       13.3612275847
  C        45.5629615004       27.7241210591       10.8527251610
  C        45.5330938763       27.7173488429        9.4314336092
  C        44.8266413382       28.7074840251        8.6784751209
  C        35.1086352482       26.6483677939        8.7346982711
  C        35.1064112087       26.6155567840       11.5440635586
  C        18.1486329300        3.2471057253       13.7014949522
  C        17.4299829154        4.3439080593       12.9923259514
  C        16.4147469461        4.0525682459       12.0687906327
  C        15.7664339976        5.0831950420       11.3934198600
  C        16.1210929455        6.4284489591       11.6160870978
  C        17.1124919601        6.7118613791       12.5733219753
  C        17.7601886678        5.6829798827       13.2531123899
  C        15.4905774180        7.5241071590       10.8436191552
  C        15.4963237794        7.5073488475        9.4224849923
  C        16.1929753958        6.5055811848        8.6757699008
  H        10.6723767129       12.4654164975       11.8999093774
  H        11.6947025390       10.5505681255       10.6580404580
  H        15.3922930887       11.1696533689       12.7661967345
  H        14.3518771561       13.0724652599       14.0112438734
  H        13.3766267950       11.6313578458        9.1963035055
  H        50.3226153589       22.7482206228       11.9814298620
  H        49.3195114743       24.6226672830       10.6753858587
  H        45.6425175867       24.1620442974       12.8592967127
  H        46.6634897527       22.2910777973       14.1676245800
  H        47.6299073826       23.5760091293        9.2411130842
  H        14.8724646406        8.5885293656       12.6035108802
  H        50.2868404035       22.7021898487        4.0658709265
  H        49.2689734558       24.5751307295        5.3658886973
  H        45.6108333319       24.1100024855        3.1505155919
  H        46.6529842782       22.2546427979        1.8361694768
  H        47.6078532308       23.5519349246        6.8019898560
  H        40.6680052079       17.1434368337        3.4251612751
  H        48.6874035422       14.0951789607       15.7950682693
  H        10.6813681527       12.4662926494        4.0980067207
  H        11.6898100660       10.5243819817        5.3017220567
  H        15.3943367113       11.1602182828        3.2118214175
  H        14.3657890245       13.0885540998        1.9966228666
  H        13.3763774247       11.6223862651        6.7582778680
  H        47.9302828850       14.2192573550        1.7157126580
  H        47.7802485598       14.3753106792       14.4907235632
  H        49.0849750127       18.5529497677        2.8727516575
  H        10.4165904305       14.1342579396        0.0037765102
  H        24.4824466886        3.0293498701       11.9072271292
  H        25.6237161997        4.8857242537       10.6795722191
  H        23.2509494672        7.7561953038       12.8312911576
  H        22.1284707802        5.8900518223       14.0610300463
  H        23.8224559643        5.7911799237        9.2479589989
  H        36.3723290533       32.1929786488       11.9687474627
  H        35.2422149882       30.3701799295       10.6905512035
  H        37.5050777112       27.4424833342       12.8836608530
  H        38.6150054431       29.2780494595       14.1711249303
  H        37.0162332142       29.4568107241        9.2733822821
  H        25.7345877320        8.6165711031       12.6364680640
  H        36.4631370129       32.2576075541        4.1173524154
  H        35.3378886522       30.4499961849        5.4160325288
  H        37.4954386544       27.4944041074        3.1538257086
  H        38.5968942435       29.3142498186        1.8434777499
  H        37.0298161830       29.4812142307        6.8352016992
  H        46.1094905153       26.5877740807        3.3906790826
  H        44.6680530893       35.1161328660       15.8089390837
  H        24.4451666771        3.0367906319        4.0821821962
  H        25.5859028520        4.8737611893        5.3281372200
  H        23.1819068169        7.7675490932        3.2442455692
  H        22.0531495821        5.9186774230        1.9977573067
  H        23.8079368755        5.7902398151        6.8096990340
  H        44.9529829113       34.3896457958        1.6998471138
  H        44.9008917066       34.2064857219       14.4856427285
  H        40.6657902187       33.2091009763        2.8581402657
  H        23.1506090662        1.9579575255        0.0096404080
  H        25.8312615054       19.6499524317       11.8881436680
  H        23.6610490298       19.7196152331       10.6521424315
  H        22.3045283575       16.2858254264       12.8585819188
  H        24.4741405793       16.2387543293       14.0970871769
  H        23.7147746837       17.7045601220        9.2383472713
  H        35.1330652239       15.4714327391       11.9560367448
  H        37.2632052619       15.4260545685       10.6484836306
  H        38.6878578474       18.8166579093       12.8778179437
  H        36.5517833092       18.8463579855       14.1828014304
  H        37.2302600305       17.4160976707        9.2292731258
  H        20.3460998454       18.0273821579       12.6546299604
  H        35.2209307971       15.4539277410        4.0566161759
  H        37.3586700142       15.4045742664        5.3540189539
  H        38.7311159563       18.8643362151        3.1996650579
  H        36.5905435804       18.8927031857        1.9004436007
  H        37.2519177400       17.4210524540        6.7856702283
  H        35.1035204626       26.7162702739        3.4037889399
  H        28.5018150344       21.0817069294       15.9760530265
  H        25.7513414981       19.6385034639        4.1588805994
  H        23.5658045988       19.6980860486        5.3698060568
  H        22.2985390466       16.1832485766        3.2397874873
  H        24.4848712767       16.1463962085        2.0227000750
  H        23.6970614103       17.6741141829        6.7989070495
  H        29.0062581929       21.7175156233        1.7657769943
  H        29.1685440331       21.7407521117       14.6300176614
  H        32.0901730691       18.5280456508        2.9958790197
  H        27.3950587401       19.0713730153        0.0985005356
  H        14.8472315504       19.6538361781        4.1367744649
  H        17.0118451229       19.7041687338        5.3775354000
  H        18.3046667255       16.1959961618        3.2519474297
  H        16.1362386103       16.1612468689        2.0104484491
  H        16.9166200777       17.7103977447        6.8418200050
  H        46.0943579528       15.4482711007        4.0755662050
  H        43.9713328570       15.4043271185        5.3898533509
  H        42.5726501169       18.8472526927        3.2227404970
  H        44.6951203151       18.8647073238        1.8975631613
  H        44.0346861709       17.3429290627        6.8524190714
  H        20.2903603589       17.9259725738        3.4187952195
  H        46.0345995702       15.3824858401       12.0361025343
  H        43.9021218113       15.3219552653       10.7425350896
  H        42.5174984495       18.7900990640       12.8769851808
  H        44.6566986229       18.8368352384       14.1708360208
  H        44.0121786512       17.3113627005        9.2920285448
  H        46.1994195859       26.6828896381       12.6182258022
  H        52.7414045491       21.0627939316        0.1997971523
  H        14.8598162938       19.6797189534       11.8926819767
  H        17.0561314445       19.7686194014       10.7048684381
  H        18.3439362564       16.2613860546       12.8342199497
  H        16.1488360007       16.1951130176       14.0308040988
  H        16.9340609877       17.7359211728        9.2790046160
  H        52.3231180307       21.6737912978       14.2892213689
  H        52.0138355266       21.7026222452        1.5007198564
  H        49.0678693830       18.6077740551       13.1986315886
  H        13.2477953259       19.0161197879       15.9721127770
  H        29.9693322542       12.4553000698        4.1970866988
  H        28.9117280538       10.5217940381        5.3839019660
  H        25.2606926972       11.1990902678        3.2162295583
  H        26.3364152499       13.1188547112        2.0278677105
  H        27.1973778507       11.6639358350        6.7871612535
  H        30.9616435825       22.7867976934        4.0409892308
  H        31.9659338238       24.6719366298        5.3352266048
  H        35.6413371758       24.1965623503        3.1517893010
  H        34.6134047352       22.3234632229        1.8479507809
  H        33.6393259452       23.6064088872        6.7596139363
  H        25.7295533940        8.5907551344        3.4001321570
  H        30.9348307596       22.7282575413       11.9907406083
  H        31.9437999734       24.5783225036       10.6574825909
  H        35.6207412902       24.1363810357       12.8458053378
  H        34.5971859890       22.2813300403       14.1737079564
  H        33.6261983554       23.5823331624        9.2015543518
  H        40.5842542921       17.0807571160       12.6530312684
  H        32.5142486731       14.1505475332        0.2556226472
  H        29.8914351995       12.5412905020       11.8927203317
  H        28.8713526393       10.6276313543       10.6573995570
  H        25.2031923551       11.1879979511       12.8313504444
  H        26.2445440709       13.0882366609       14.0783488314
  H        27.1836585202       11.6816663376        9.2258803060
  H        33.2902467635       14.1967300633       14.4179642169
  H        33.4113945272       14.4288933714        1.5937788583
  H        32.0966681294       18.5731264141       13.1749533967
  H        30.2290073859       14.1936827624        0.0658817093
  H        16.1183474027        2.9634751484        4.1346589983
  H        14.9532242408        4.8205217867        5.3274572754
  H        17.3663918013        7.6861175758        3.2152778160
  H        18.5150032588        5.8186110510        2.0154140704
  H        16.7533205936        5.7394121992        6.7766806669
  H        44.8279568575       32.1403259050        3.9822734569
  H        45.9372234993       30.3414031994        5.3117604281
  H        43.6826024539       27.3782185415        3.1573934814
  H        42.5998513986       29.1901317290        1.8148297518
  H        44.2299686962       29.4365448269        6.7739584033
  H        14.8517077324        8.5466880591        3.3684741230
  H        44.8994361753       32.2341159298       11.9264336299
  H        46.0242676709       30.4130757176       10.6467910490
  H        43.7638856771       27.4840941125       12.8406618957
  H        42.6461284743       29.3177904538       14.1198178079
  H        44.2680467288       29.4703082348        9.2130594874
  H        35.0683903100       26.6248331644       12.6317012966
  H        36.6049383111       35.1342617044        0.1856144893
  H        16.1436544711        3.0129858669       11.8991167448
  H        14.9740905640        4.8563249137       10.6833651675
  H        17.3960191991        7.7473358524       12.7501539581
  H        18.5430795685        5.8935085452       13.9778381697
  H        16.7643624700        5.7552972312        9.2141939862
  H        36.2785353857       34.4826893176       14.2681379547
  H        36.3805695447       34.2094316258        1.5047192156
  H        40.5800480544       33.2026417914       13.1486278495
  H        17.4708022885        1.9477009224       15.9690000210
  H        28.9980156085       19.0963134535        4.4896502841
  H        29.7346627701       19.9446726040       11.6593484456
  H        32.2515500727       16.3070805273       10.6174550711
  H        31.5475147252       15.6444886300        4.5788094620
  H        28.3853683204       17.3568329378        6.6066721250
  H        32.3542042414       13.9637521939        8.1523077574
  H        31.2165613039       20.0903684892        9.5671176900
  H        33.6103756250       16.7859244845        9.9474326664
  H        29.2506238514       16.2910728764        9.2219247378
  H        18.8530133083        0.8691133265        4.3402746558
  H        40.5278051066       35.2292794370       11.9469658661
  H        42.3240383087       34.4188957088       11.5857189435
  H        22.0874970369        0.6920904817        4.3566915749
  H        11.5966567503       18.7126886628        4.3878259566
  H        52.2650497517       18.4312070944       11.6723867507
  H        49.2547988629       16.4768593739       11.5793662640
  H        10.1498788545       15.7984393754        4.2981646610
  H        50.8502247441       17.6926818102       11.9488847442
  H        10.0459319312       17.3947293236        4.0569984301
  H        20.2138991450        0.0021383459        4.0472181287
  H        39.1835683695       36.1244265263       11.6811098243
  H        32.3920376143       18.6202616594        8.0607476318
 Ni        30.4348067083       17.9185613673       10.8293245817
 Ni        31.5419799668       16.3999577444        7.8307946512
 Ni        29.8887476768       18.6240268778        8.0766551805
 Ni        30.2245999655       17.2970853192        5.1660250749
  O        10.6499833108       14.3651774072       13.4807227061
  O        12.6131765625       14.6574934504       14.5787879137
  O        49.1479754407       16.8457744181       15.9844915872
  O        50.3501546688       20.9360228061       13.6428592119
  O        48.3484889236       20.5933714413       14.6607484506
  O        11.0515911238       17.0538239919       14.4957157425
  O        50.3208442999       20.8816835963        2.4120358572
  O        48.3466965759       20.5867564957        1.3321721934
  O        49.5438859729       18.2484144686        2.0732400263
  O        12.3591368037       18.6247106647        0.0046763173
  O        48.6931937754       14.1486200202       14.7462037983
  O         8.2099883473       14.2103180391        1.3275279460
  O        10.7353511993       14.5067774857        2.6694233718
  O        12.5718196762       14.5827489033        1.3336212533
  O        22.8451412522        2.0441338367       13.4817485740
  O        21.6063543735        3.5931206004       14.5836947749
  O        42.0582817946       34.1374273847       15.9738606317
  O        37.9819475860       33.1395258076       13.5678729220
  O        39.2179976022       31.5764753031       14.6616473158
  O        20.3085687499        1.0399762601       14.4970342269
  O        38.0252164201       33.1874099436        2.4197030448
  O        39.2188085364       31.5837678503        1.3321835840
  O        40.6523236691       33.7694416808        2.0652831444
  O        18.2554347577        1.3764541612        0.0018991746
  O        44.6222338805       35.1005527196       14.7536592941
  O        24.2054037917       -0.0000398253        1.3258816948
  O        22.7532181449        2.0577703702        2.5888920079
  O        21.6248367664        3.5964768728        1.3482908124
  O        27.4847317117       18.7397784756       13.5004437735
  O        26.7055552082       16.9311338969       14.6577726637
  O        30.6687671214       19.4057099937        0.0788952288
  O        33.5425521208       16.3400346747       13.5780726040
  O        34.2759766482       18.1665387852       14.7306993603
  O        29.5698790153       17.0701672623       14.5720275254
  O        33.6227086975       16.3281858007        2.4121405226
  O        34.3037095366       18.2508804182        1.4103238597
  O        31.6583165264       18.3156728968        2.1510343342
  O        30.3229647575       15.1602030685        0.0729695739
  O        28.5523999374       21.0358195726       14.9013967855
  O        28.5124153634       20.9558872533        1.4172378764
  O        27.4565273466       18.6809596204        2.6632462228
  O        26.6934037861       16.9300362933        1.4200559199
  O        13.1475982091       18.6931658176        2.5918429900
  O        13.9186722190       16.9161220974        1.4095564836
  O        50.5964949116       19.3503385041        0.0254735951
  O        47.6844384468       16.3265262053        2.4220543155
  O        46.9526849308       18.1760138153        1.3290078211
  O        11.0699401635       17.0154412043        1.4945897799
  O        47.6747673595       16.3356614308       13.6478232984
  O        46.9263529544       18.2360618011       14.6591279300
  O        49.5687097294       18.3177372364       13.9770219382
  O        10.3187420831       15.1000536991        0.0021447094
  O        52.6707790054       21.0279116743        1.2469225531
  O        12.1468201113       20.8913811815       14.6682560635
  O        13.1058220568       18.6142643915       13.3209239389
  O        13.9567241462       16.9875088030       14.6594366670
  O        30.0029367213       14.4365776051        2.6681568496
  O        28.0784183360       14.6590806955        1.4865919883
  O        32.1398022147       16.8591988162        0.0721667525
  O        30.9468495888       20.9467732906        2.4278312925
  O        32.9163909087       20.6556860322        1.3328319539
  O        29.5664390757       17.0716713570        1.5731652480
  O        30.8955847291       20.9635364824       13.7437348830
  O        32.9476115990       20.5832875720       14.6599052989
  O        31.6779068279       18.2596695015       13.9923898186
  O        28.2811054844       18.6741716358        0.0856241414
  O        32.4972393476       14.2128050102        1.3296933390
  O        32.4002084922       14.2242914132       14.8063916579
  O        29.8771327684       14.5095065592       13.4055412837
  O        28.0421933030       14.5865464380       14.7414257379
  O        17.8892572481        1.9667369984        2.6678860934
  O        18.9563324091        3.5271826222        1.4130250906
  O        39.1686648625       34.1389749811        0.0022772246
  O        43.2802594098       33.0590030674        2.3367973926
  O        42.0345457662       31.5064788989        1.2467311437
  O        20.3177926603        1.0369388761        1.4850410832
  O        43.2760426359       33.1825946831       13.5698342435
  O        42.0052868032       31.5840443068       14.5779123343
  O        40.5791096372       33.7751138000       13.9308894126
  O        22.3674362728        1.3848100382        0.0029886898
  O        36.6726757376       35.0999420810        1.2382696214
  O        16.4455359065        0.0644816599       14.6632450760
  O        17.9364664388        2.0434734548       13.3213065804
  O        18.9192053480        3.5931575223       14.6608173140
  O        29.8223969000       19.1215138234       12.1749988175
  O        29.7782464652       18.7648357371        4.0025882873
  O        31.1787221079       16.3389123590       11.9927383910
  O        31.3981770023       16.4135928687        3.9879052911
  O        32.7421488580       16.4076619151        9.7377017031
  O        29.9848640943       16.9267212526        9.2376092180
  O        30.6217699346       15.9780371842        6.3103168799
  O        31.7675524306       18.2486307024        7.4119993717
  O        30.3663944961       19.6304398683        9.6535909847
  O        28.9851806081       18.1010269350        6.4207371241
  O        39.4568065893       35.2438892733       11.9968349694
  O        19.1408096591        0.0045333838        3.9957120117
  O        41.9698117537       35.1729982514       12.0821187437
  O        21.6912076027       -0.0693571257        3.9009877527
  O        51.3650363626       18.6143184417       12.0001109963
  O        10.7509304076       18.7471269679        3.9101208316
  O        50.0791981211       16.4126705033       12.0866229941
  O         9.5240088790       16.4831767414        3.9963364860
 Zr         9.2980486587       16.0528792937       14.1773777251
 Zr        49.8378601313       16.0066603452        1.7512797681
 Zr        22.0731479770        0.0302371176       14.1839375565
 Zr        42.4607173190       35.1536979066        1.8061364740
 Zr        29.5906758686       19.1108330090       14.2948951568
 Zr        29.5788371459       19.1672432845        1.8718924270
 Zr        11.0389700564       19.0518854891        1.8330251134
 Zr        11.0448662821       19.1548795048       14.2454605549
 Zr        31.3487317820       16.1037172400        1.8532291420
 Zr        31.3852894856       16.0390057731       14.2568941662
 Zr        18.6009801501       -0.0009773084        1.7682880523
 Zr        18.5064690420       -0.0072243595       14.2087060299
 Zr        12.3034619975       16.3237010637       15.9850775162
 Zr        48.6182001298       18.8334461876        0.0149153751
 Zr        20.3155253262        2.4739834596       15.9854330452
 Zr        40.6433571023       32.6872926972       15.9732426023
 Zr        28.3296856833       16.3485568114        0.0818141636
 Zr        32.6301764525       18.8533021035        0.0704084320
  O        31.4644744737       14.3558015656        8.1512253637
  H        31.0989089373       14.2351933654        7.2433208668
  H        30.5580017298       15.6088652772       11.8009516364
