     571
 i =      240, E =     -4761.5559765456
  C        11.8587812399       14.0534963709       13.7364529287
  C        12.4562850649       12.8905801794       13.0181759924
  C        11.7045248987       12.1714666893       12.0767041163
  C        12.2809267848       11.1092727418       11.3843661263
  C        13.6215845864       10.7396670368       11.6119383483
  C        14.3548455693       11.4434511847       12.5851778112
  C        13.7819271869       12.5084151441       13.2766771389
  C        14.2611222766        9.6490107208       10.8385365032
  C        14.2563337048        9.6568965853        9.4168402258
  C        13.7430180830       10.7589636143        8.6629552050
  C        49.1268617915       21.2332048366       13.8745749574
  C        48.5501247717       22.4012115541       13.1475210415
  C        49.3001434737       23.0684892735       12.1664964259
  C        48.7332225530       24.1076542594       11.4333155780
  C        47.4027168175       24.5093468096       11.6620158947
  C        46.6717827052       23.8605083208       12.6755571922
  C        47.2342114705       22.8155667929       13.4048739268
  C        46.7724780909       25.5870496510       10.8647481857
  C        46.7612859506       25.5573347857        9.4429914307
  C        47.2611137199       24.4421774837        8.6995214111
  C        14.8603410009        8.5706161163        8.7035499842
  C        14.8920689580        8.5971550913       11.5151698751
  C        49.1131986731       21.2033832082        2.1504152254
  C        48.5277892252       22.3647123797        2.8777068123
  C        49.2669819646       23.0252939688        3.8707256384
  C        48.6906796671       24.0598636040        4.6022005707
  C        47.3603236620       24.4567570885        4.3638797975
  C        46.6399458655       23.8119681881        3.3402578832
  C        47.2134670787       22.7760404962        2.6084717358
  C        46.7219234597       25.5317876818        5.1548711817
  C        46.7334819930       25.5280978930        6.5765776060
  C        47.2488170657       24.4288410893        7.3329681385
  C        40.6315471709       17.1190778605        7.3333548459
  C        40.6579076972       17.1712002170        4.5245254336
  C        11.8830036059       14.0865534048        2.2906551994
  C        12.4723819649       12.9108497943        2.9949380512
  C        11.7148144580       12.1774503870        3.9208553227
  C        12.2814657461       11.0950270639        4.5892616362
  C        13.6203804720       10.7215205692        4.3576048636
  C        14.3584323909       11.4373106326        3.3970310700
  C        13.7929359536       12.5184377902        2.7243351569
  C        14.2539906613        9.6247545227        5.1279826121
  C        14.2525526007        9.6446237497        6.5498175912
  C        13.7425197124       10.7534834500        7.2969124849
  C        22.5128355867        3.2460794810       13.7467340432
  C        23.2274118120        4.3512787821       13.0458319275
  C        24.2235819549        4.0708553575       12.0985752273
  C        24.8512356460        5.1096608864       11.4155683872
  C        24.4991324204        6.4524806905       11.6583645559
  C        23.5309631164        6.7242835348       12.6425792997
  C        22.8987797652        5.6873269256       13.3243399716
  C        25.1065386159        7.5584935483       10.8817506612
  C        25.0828783545        7.5497296921        9.4596240204
  C        24.3836233458        6.5492331846        8.7123667865
  C        38.3034927462       31.9310126311       13.8451948522
  C        37.5747932369       30.8408605260       13.1366649923
  C        36.6127226879       31.1436115471       12.1614009759
  C        35.9971767341       30.1221341945       11.4439015648
  C        36.3300356586       28.7742314349       11.6807985159
  C        37.2624904055       28.4787111955       12.6925834933
  C        37.8818468771       29.4989617852       13.4091044365
  C        35.7286229061       27.6831219236       10.8836176102
  C        35.7542340294       27.7031467685        9.4625284893
  C        36.4605779211       28.7059363245        8.7261854412
  C        25.7066825577        8.6193177076        8.7392340172
  C        25.7023894320        8.6349383805       11.5519784750
  C        38.3291603411       31.9641603694        2.1611020409
  C        37.6048280770       30.8945400701        2.9050013598
  C        36.6795915893       31.2107146220        3.9114452773
  C        36.0644982291       30.1972764917        4.6434079418
  C        36.3603745434       28.8431246273        4.3908572466
  C        37.2639441827       28.5367957978        3.3550762195
  C        37.8817918089       29.5469597915        2.6249476490
  C        35.7455193130       27.7483598325        5.1749079457
  C        35.7626816172       27.7368224584        6.5965466415
  C        36.4651384588       28.7216023372        7.3597277818
  C        46.1355601969       26.6208032692        7.2866865014
  C        46.0881297333       26.5802258028        4.4787891351
  C        22.4637064693        3.2563614318        2.2623016917
  C        23.1635967642        4.3634863075        2.9821716743
  C        24.1682361576        4.0746340693        3.9196953685
  C        24.8021766199        5.1027716376        4.6134179954
  C        24.4520673456        6.4499533415        4.3927247931
  C        23.4708892498        6.7320223406        3.4232746903
  C        22.8323360980        5.7041948182        2.7298657029
  C        25.0859172657        7.5468418154        5.1670408228
  C        25.0727195335        7.5433114060        6.5898525919
  C        24.3768630520        6.5475254456        7.3455647631
  C        26.6251528426       17.8621468282       13.7804524401
  C        25.3168192068       17.9017608601       13.0547959736
  C        25.0565641104       18.8931356483       12.0955604547
  C        23.8434454005       18.9096017985       11.4093946823
  C        22.8529308573       17.9380505514       11.6604685676
  C        23.1096857973       16.9689841695       12.6486875769
  C        24.3250288100       16.9470091409       13.3320599149
  C        21.5788324924       17.9210728476       10.8969332379
  C        21.5780595367       17.8937385072        9.4745187214
  C        22.7829074079       17.7630663535        8.7142105182
  C        34.4221468353       17.2196509863       13.9105008096
  C        35.7143230992       17.1493068142       13.1677981982
  C        35.9077831685       16.1838170393       12.1676567050
  C        37.0908209957       16.1585504680       11.4336227759
  C        38.1117535543       17.0975780710       11.6792590607
  C        37.9206377487       18.0418690351       12.7063010553
  C        36.7361468950       18.0721006406       13.4381113030
  C        39.3676826985       17.1004665420       10.8947825772
  C        39.3673808309       17.1209879480        9.4729211755
  C        38.1626670980       17.2454974065        8.7116505911
  C        20.3315246387       17.9126741086        8.7658179550
  C        20.3539360782       17.9282471762       11.5791017237
  C        34.4807772084       17.2481031246        2.1823664529
  C        35.7840407553       17.1769159819        2.9052941526
  C        35.9988144199       16.1876831568        3.8765880223
  C        37.1832855967       16.1679343843        4.6070905003
  C        38.1807274522       17.1371468658        4.3858980501
  C        37.9724104997       18.1020283919        3.3829185763
  C        36.7856654289       18.1264525704        2.6547391112
  C        39.4251453900       17.1520715397        5.1852006233
  C        39.3970230693       17.1484632137        6.6061997128
  C        38.1767720651       17.2564390679        7.3450879975
  C        35.1297008896       26.6584521544        7.2993260870
  C        35.1427299973       26.6860104828        4.4907426770
  C        26.5864936420       17.7953732476        2.3642675752
  C        25.2682690409       17.8443959473        3.0626204957
  C        24.9993016455       18.8506795798        4.0023654825
  C        23.7759297521       18.8798193719        4.6657056938
  C        22.7935083488       17.9011453943        4.4146173872
  C        23.0567040421       16.9202877968        3.4414894241
  C        24.2797871632       16.8906914967        2.7743687583
  C        21.5281124191       17.8830959191        5.1846078215
  C        21.5520553425       17.8719392703        6.6061009013
  C        22.7701925617       17.7517940127        7.3480183177
  C        14.0467555162       17.8276826075        2.2948556080
  C        15.3506559567       17.8812972027        3.0216473228
  C        15.6090094876       18.8818609239        3.9716189803
  C        16.8178173901       18.8987194261        4.6651355840
  C        17.8027832916       17.9177463533        4.4311495866
  C        17.5490357238       16.9412783857        3.4493224184
  C        16.3397613265       16.9198162875        2.7574309059
  C        19.0720352531       17.8968164390        5.2001109857
  C        19.0709465067       17.8928288309        6.6226719382
  C        17.8639894036       17.7961869508        7.3843221777
  C        46.8066475824       17.2206836919        2.1659745917
  C        45.5201360879       17.1644612331        2.9172224136
  C        45.3153933558       16.1890882850        3.9052623505
  C        44.1365597009       16.1757774520        4.6458610422
  C        43.1330837061       17.1380581081        4.4200081140
  C        43.3359347890       18.0943063643        3.4066252795
  C        44.5153095321       18.1114045497        2.6669377809
  C        41.8795871996       17.1492332553        5.2072770378
  C        41.8807323618       17.1376216151        6.6290338236
  C        43.0872440659       17.2266311652        7.3920349097
  C        20.3177437494       17.9010205460        7.3310124208
  C        20.2962892433       17.8753088075        4.5176904006
  C        46.7833685720       17.2288224809       13.8867646823
  C        45.4769564250       17.1161188038       13.1777036790
  C        45.2596887420       16.1164482610       12.2173184681
  C        44.0698944181       16.0846747907       11.4941079539
  C        43.0673916422       17.0489983195       11.7148373198
  C        43.2739031360       18.0163794931       12.7160147862
  C        44.4651839807       18.0550044056       13.4338112108
  C        41.8224327666       17.0711655448       10.9153566840
  C        41.8516120020       17.0957853867        9.4945932136
  C        43.0733503728       17.2045442491        8.7582572248
  C        46.1533411937       26.6372507111        8.7212387990
  C        46.1626344800       26.6562265336       11.5308744199
  C        14.0456893871       17.8314061331       13.7037928298
  C        15.3671451628       17.9043111069       13.0140934851
  C        15.6422314250       18.9177785478       12.0839073564
  C        16.8718946004       18.9527230495       11.4301261921
  C        17.8540931311       17.9733528895       11.6807251139
  C        17.5859942343       16.9892114377       12.6494396427
  C        16.3583884445       16.9536437428       13.3066340090
  C        19.1214264436       17.9448072986       10.9120234628
  C        19.0966460261       17.9163747851        9.4906645777
  C        17.8765769361       17.8066918759        8.7503032093
  C        28.8126833506       14.0853202770        2.3662942351
  C        28.2102070915       12.9116157286        3.0607479098
  C        28.9227961633       12.2091000346        4.0433680351
  C        28.3298696894       11.1325325641        4.6985508696
  C        27.0092455840       10.7385646288        4.4008527560
  C        26.3191729823       11.4249256186        3.3850312755
  C        26.9103504109       12.4990819202        2.7255009437
  C        26.3398945500        9.6602790594        5.1643998221
  C        26.3166400320        9.6910752974        6.5857117733
  C        26.8097517452       10.8086309480        7.3313240897
  C        32.1530907674       21.2712033723        2.1504348053
  C        32.7361606944       22.4445782290        2.8667433380
  C        31.9882926083       23.1147407186        3.8465029689
  C        32.5579134372       24.1542330558        4.5760880539
  C        33.8903369167       24.5482788662        4.3465604016
  C        34.6191211217       23.8976458340        3.3334931781
  C        34.0517310719       22.8545979708        2.6051385304
  C        34.5245154028       25.6178042203        5.1492204968
  C        34.5263561972       25.5820115161        6.5703637640
  C        34.0166232512       24.4660665091        7.3066643262
  C        25.7063398581        8.6128420236        7.3043469661
  C        25.7070901870        8.6059388665        4.4916390890
  C        32.1052931324       21.2325073004       13.8825334356
  C        32.7001790733       22.3806983953       13.1356232307
  C        31.9591328973       23.0562696140       12.1536406771
  C        32.5404489562       24.0835746535       11.4142755577
  C        33.8765724409       24.4673261756       11.6416015313
  C        34.6012189121       23.8059788772       12.6513475114
  C        34.0246297955       22.7716318797       13.3842401079
  C        34.5143478649       25.5503775590       10.8585334430
  C        34.5197807352       25.5483248435        9.4369557295
  C        34.0128503518       24.4503554400        8.6731365497
  C        40.6162788334       17.1009681412        8.7676836213
  C        40.5898081137       17.0914404212       11.5770946343
  C        28.7333920496       14.1016743645       13.7741703363
  C        28.1289547080       12.9495117100       13.0408167013
  C        28.8655209262       12.2445209302       12.0763804863
  C        28.2869946537       11.1794244648       11.3897518662
  C        26.9552841779       10.7919393047       11.6417382347
  C        26.2366307684       11.4830890802       12.6352019246
  C        26.8137033679       12.5478868540       13.3242122824
  C        26.3147058840        9.6970900648       10.8737153632
  C        26.3065780746        9.7089375667        9.4518231923
  C        26.8037913533       10.8173173245        8.6969380482
  C        18.1355426308        3.1812190918        2.3222742270
  C        17.4063424125        4.2784445639        3.0208869388
  C        16.3903033118        4.0001570684        3.9480892813
  C        15.7426455598        5.0401725818        4.6115756526
  C        16.0949439701        6.3838519253        4.3721952913
  C        17.0846898640        6.6533247766        3.4087975435
  C        17.7337398524        5.6159411054        2.7437633983
  C        15.4705374268        7.4915023109        5.1352503569
  C        15.4856952202        7.4907137773        6.5569607826
  C        16.1872834346        6.4971051538        7.3101067308
  C        42.9460521624       31.8596504322        2.0780596709
  C        43.6465388604       30.7719730677        2.8219523597
  C        44.5918679431       31.0933472048        3.8081937548
  C        45.1976345561       30.0878086763        4.5558344881
  C        44.8714208478       28.7347169505        4.3408258645
  C        43.9459079561       28.4203408425        3.3273324026
  C        43.3370402767       29.4254613651        2.5793109355
  C        45.4889424383       27.6553930610        5.1440241384
  C        45.4929721754       27.6809735325        6.5657219451
  C        44.8059705694       28.6890716403        7.3123569999
  C        14.8566041725        8.5631230498        7.2693328358
  C        14.8753583508        8.5633276613        4.4566688755
  C        42.9465578459       31.9617694426       13.8039149136
  C        43.6919074381       30.8856332906       13.0904934045
  C        44.6561924668       31.1915646013       12.1179033215
  C        45.2777818248       30.1719913859       11.4002059806
  C        44.9543374118       28.8216398825       11.6380967986
  C        44.0212955608       28.5239539906       12.6492897032
  C        43.3930004698       29.5407083777       13.3614565332
  C        45.5633210068       27.7242288667       10.8528286621
  C        45.5334491224       27.7174570130        9.4315283410
  C        44.8272215263       28.7077324139        8.6785422535
  C        35.1260711601       26.6411525678        8.7337123316
  C        35.1288909337       26.6049418360       11.5435676077
  C        18.1487794883        3.2471872438       13.7014816281
  C        17.4303035408        4.3439884904       12.9921513323
  C        16.4149075993        4.0527341593       12.0687701221
  C        15.7666310179        5.0833796513       11.3933988355
  C        16.1214939840        6.4285923275       11.6159582203
  C        17.1131381175        6.7119462229       12.5729442853
  C        17.7608182055        5.6830304177       13.2527014359
  C        15.4908862096        7.5242444447       10.8435444461
  C        15.4966662626        7.5075660479        9.4224138358
  C        16.1935144873        6.5059244468        8.6757116938
  H        10.6723251019       12.4654339078       11.8998307887
  H        11.6945975391       10.5506298803       10.6579841003
  H        15.3919713704       11.1690773065       12.7667069979
  H        14.3514978827       13.0718285177       14.0118831047
  H        13.3759436140       11.6310476148        9.1962871632
  H        50.3228341009       22.7484021154       11.9817321135
  H        49.3197057311       24.6229010366       10.6757221194
  H        45.6423245770       24.1613556459       12.8587857427
  H        46.6632229130       22.2903017537       14.1669681875
  H        47.6296289623       23.5758036829        9.2412284610
  H        14.8725782367        8.5884821162       12.6034798443
  H        50.2869956551       22.7023582824        4.0656718669
  H        49.2690674110       24.5752497066        5.3657553039
  H        45.6106006875       24.1093507417        3.1510982491
  H        46.6526991273       22.2539636699        1.8368101684
  H        47.6075457256       23.5516940044        6.8020793522
  H        40.6670823495       17.1471384025        3.4365383539
  H        48.6870919699       14.0949106304       15.7948696940
  H        10.6812567294       12.4663177303        4.0980860178
  H        11.6896413045       10.5244382839        5.3017749751
  H        15.3939737333       11.1596839533        3.2113140980
  H        14.3653679129       13.0879937823        1.9960244292
  H        13.3756562097       11.6220875048        6.7582867236
  H        47.9301777972       14.2180692755        1.7159588270
  H        47.7800780799       14.3737782761       14.4901183810
  H        49.0844074998       18.5527362594        2.8726444967
  H        10.4160879903       14.1343298986        0.0037741243
  H        24.4842736463        3.0321763622       11.9078477062
  H        25.6239480229        4.8904959215       10.6818709284
  H        23.2507674225        7.7573913721       12.8375882448
  H        22.1296304265        5.8895443483       14.0657807385
  H        23.8210722848        5.7926659559        9.2515708110
  H        36.3728389711       32.1864685931       11.9680024908
  H        35.2505087732       30.3587008186       10.6890737708
  H        37.5263468482       27.4401643371       12.8813108161
  H        38.6279215647       29.2807320968       14.1694637812
  H        37.0306928483       29.4514981442        9.2727552683
  H        25.7357757876        8.6193486493       12.6399132082
  H        36.4637455046       32.2566970044        4.1170083484
  H        35.3415196892       30.4471560581        5.4167701884
  H        37.5037068933       27.4946373961        3.1547343094
  H        38.6021179657       29.3165193813        1.8437753653
  H        37.0400259999       29.4786551393        6.8341246439
  H        46.1097209768       26.5876974631        3.3907568597
  H        44.6684170398       35.1163092219       15.8088787770
  H        24.4430315342        3.0355681097        4.0864844930
  H        25.5842376604        4.8710864446        5.3333567372
  H        23.1889910500        7.7674872683        3.2433999448
  H        22.0591423375        5.9201571269        1.9961233792
  H        23.8086225959        5.7900348996        6.8135328960
  H        44.9542074651       34.3906307962        1.7003525515
  H        44.9019574653       34.2069717267       14.4854804256
  H        40.6666557344       33.2098222892        2.8584781836
  H        23.1507123054        1.9583970781        0.0097985355
  H        25.8184436985       19.6453695164       11.9039970103
  H        23.6470492180       19.6849036533       10.6718051960
  H        22.3574657727       16.2094650655       12.8521088790
  H        24.5328820119       16.1852635632       14.0799344511
  H        23.7229140441       17.6409999427        9.2444465170
  H        35.1144870323       15.4654087386       11.9744222154
  H        37.2397031562       15.4016071472       10.6666416809
  H        38.7010045651       18.7745937020       12.9012640349
  H        36.5729032972       18.8153888040       14.2151053888
  H        37.2212778286       17.3631671091        9.2405085785
  H        20.3606957588       17.9725614265       12.6668064534
  H        35.2175644595       15.4525238687        4.0551606760
  H        37.3496613443       15.3977225327        5.3570648220
  H        38.7371368490       18.8560739392        3.2082773845
  H        36.6022694354       18.8880487864        1.9004283845
  H        37.2463163067       17.3805003024        6.7986106458
  H        35.1094036841       26.7168782101        3.4033696360
  H        28.5063939770       21.0777928271       15.9845895602
  H        25.7607248390       19.6031392318        4.1944609769
  H        23.5662131275       19.6643870786        5.3895264583
  H        22.3066241203       16.1576869270        3.2420639002
  H        24.4993517172       16.1218440766        2.0374262160
  H        23.7005548045       17.6205412119        6.8036336852
  H        28.9954135533       21.7142370764        1.7775405806
  H        29.1646463111       21.7435620268       14.6320912518
  H        32.1103333842       18.5443476330        2.9905950381
  H        27.3931289457       19.0677139410        0.0979538829
  H        14.8521762405       19.6422148551        4.1511603711
  H        17.0141727580       19.6810861774        5.3951237703
  H        18.2986776777       16.1758106051        3.2593978143
  H        16.1327337133       16.1525310097        2.0152229499
  H        16.9211695464       17.6813367632        6.8574374824
  H        46.0968357362       15.4545623140        4.0852550790
  H        43.9772726579       15.4107419783        5.4025565173
  H        42.5692445694       18.8455252266        3.2287167847
  H        44.6884929896       18.8633532277        1.9006698070
  H        44.0304908809       17.3452645536        6.8664645296
  H        20.2904140279       17.9065945134        3.4295898821
  H        46.0395981268       15.3799533689       12.0377960707
  H        43.9051334165       15.3101402387       10.7482126691
  H        42.5044718639       18.7648426508       12.8936359979
  H        44.6463160379       18.8219962351       14.1828224426
  H        44.0059876644       17.3050614338        9.3057400436
  H        46.1997014005       26.6828747126       12.6183099849
  H        52.7412134667       21.0626268663        0.1997984244
  H        14.8825133237       19.6717280544       11.8897982403
  H        17.0842476977       19.7413555517       10.7114631641
  H        18.3357449747       16.2268031172       12.8507312043
  H        16.1360012937       16.1807203874       14.0382659482
  H        16.9431877745       17.6997671938        9.2947578966
  H        52.3225718190       21.6732997096       14.2890959548
  H        52.0132488691       21.7020355992        1.5007718071
  H        49.0670195243       18.6073152791       13.1990388171
  H        13.2477683177       19.0160013876       15.9724622983
  H        29.9336976290       12.5274765272        4.2876935903
  H        28.8856457983       10.5866420443        5.4576941767
  H        25.2983793649       11.1327569026        3.1474139030
  H        26.3738514745       13.0496788428        1.9567460116
  H        27.1688830454       11.6802782708        6.7923719133
  H        30.9656663727       22.7940712389        4.0311787671
  H        31.9741186176       24.6752648026        5.3318241069
  H        35.6501518637       24.1938839009        3.1514135837
  H        34.6192153388       22.3247065239        1.8436116800
  H        33.6519260521       23.6032764286        6.7567606611
  H        25.7433340015        8.5827560455        3.4038944747
  H        30.9271814540       22.7603327273       11.9800090790
  H        31.9591294368       24.6097277043       10.6601144061
  H        35.6353500340       24.0921791141       12.8319263977
  H        34.5883594470       22.2384762035       14.1463262734
  H        33.6455401108       23.5750622059        9.2011735804
  H        40.5802093508       17.0482175911       12.6645572897
  H        32.5168565781       14.1467758047        0.2569820529
  H        29.8956462878       12.5373864406       11.8862763209
  H        28.8664408608       10.6295540047       10.6512689907
  H        25.2064915412       11.1969800303       12.8375227605
  H        26.2553461814       13.0958272523       14.0795145456
  H        27.1571431408       11.6957444837        9.2286802533
  H        33.2921720848       14.2043180440       14.4276568095
  H        33.4129675638       14.4034529549        1.6048425952
  H        32.1538027626       18.5695052197       13.2125850698
  H        30.2292275789       14.1920633105        0.0635995109
  H        16.1179685967        2.9636833111        4.1342357977
  H        14.9529695593        4.8208797876        5.3270111151
  H        17.3675396323        7.6861516729        3.2160392722
  H        18.5161500621        5.8185951945        2.0163133445
  H        16.7539962689        5.7398965626        6.7765849483
  H        44.8280099767       32.1404476831        3.9824831884
  H        45.9373885200       30.3416287046        5.3118678693
  H        43.6835374177       27.3782296493        3.1569760001
  H        42.6007114933       29.1901143308        1.8143765688
  H        44.2307987635       29.4369670049        6.7740370784
  H        14.8517982008        8.5467096404        3.3684426366
  H        44.8995053080       32.2342663813       11.9262591745
  H        46.0244880555       30.4132964182       10.6467937837
  H        43.7647927795       27.4841795231       12.8412255176
  H        42.6469363998       29.3179047453       14.1203242935
  H        44.2688652181       29.4707433430        9.2131037141
  H        35.0925664356       26.6130289744       12.6312851085
  H        36.6052402452       35.1343843158        0.1855822092
  H        16.1436811554        3.0131734607       11.8992080746
  H        14.9741726278        4.8565996029       10.6834453555
  H        17.3969163685        7.7473821861       12.7495881571
  H        18.5439786641        5.8935008433       13.9771565791
  H        16.7650897112        5.7557761615        9.2141289725
  H        36.2790074714       34.4825912563       14.2679318322
  H        36.3815605712       34.2090720716        1.5043317999
  H        40.5812809303       33.2036101147       13.1482076833
  H        17.4711025332        1.9481834040       15.9690052358
  H        28.9645944646       19.1651327241        4.5150311706
  H        29.6585471679       19.8620027140       11.6644938154
  H        31.4327964122       15.5043973883        4.4860676823
  H        28.0315921013       17.5210667759        6.6405502418
  H        31.4421415368       19.8682851649        9.4386421979
  H        29.4265812163       16.2846161272        9.4511758599
  H        18.8536664220        0.8690489517        4.3404859074
  H        40.5280196086       35.2287540672       11.9467120223
  H        42.3254934419       34.4199780275       11.5846037053
  H        22.0875760400        0.6921457221        4.3569658244
  H        11.5970319173       18.7129359337        4.3875143254
  H        52.2650868845       18.4312652016       11.6722685781
  H        49.2560009806       16.4766700245       11.5788622698
  H        10.1503381128       15.7980865614        4.2977526876
  H        50.8502790328       17.6923797755       11.9491766200
  H        10.0462202715       17.3943907198        4.0570532840
  H        20.2148983581        0.0022480119        4.0470591605
  H        39.1840155186       36.1246510646       11.6813654487
  H        32.2504577031       18.4489019034        6.8576707981
 Ni        30.8655276792       17.9607966712       10.9092694930
 Ni        31.0687798894       16.0270060800        7.7390008818
 Ni        29.8811742145       18.4849371395        7.9989650986
 Ni        30.2337900488       17.2934730465        5.2468205511
  O        10.6499707605       14.3651113272       13.4807354957
  O        12.6131517535       14.6575233244       14.5788156710
  O        49.1479794086       16.8459158354       15.9845303394
  O        50.3502622578       20.9359057666       13.6429530908
  O        48.3485609356       20.5933168546       14.6607971840
  O        11.0516250711       17.0539187358       14.4955965323
  O        50.3209665763       20.8816583072        2.4119597291
  O        48.3467428033       20.5867491195        1.3321804722
  O        49.5437917811       18.2484300295        2.0732967995
  O        12.3591230674       18.6246313167        0.0048381390
  O        48.6932608919       14.1485857279       14.7461749810
  O         8.2098912921       14.2103602197        1.3276557848
  O        10.7353391460       14.5067707527        2.6694336178
  O        12.5717911506       14.5828182848        1.3336034753
  O        22.8451693386        2.0443556228       13.4818161761
  O        21.6062822310        3.5930030611       14.5839071069
  O        42.0585447589       34.1378312797       15.9738463096
  O        37.9818673536       33.1386247723       13.5676741424
  O        39.2187330780       31.5766974060       14.6622767483
  O        20.3087116613        1.0401895601       14.4971645115
  O        38.0252550435       33.1875837101        2.4197273286
  O        39.2190913810       31.5839742977        1.3319558056
  O        40.6524826480       33.7696561750        2.0652914688
  O        18.2555585682        1.3767043584        0.0018697222
  O        44.6221808429       35.1006073214       14.7536787600
  O        24.2054717281       -0.0000027391        1.3258208420
  O        22.7532902557        2.0576483408        2.5889575627
  O        21.6251721851        3.5966937111        1.3490386331
  O        27.4975548779       18.7534011386       13.4949295691
  O        26.7671905970       16.9320409317       14.6509122549
  O        30.6655256590       19.4075764386        0.0842359393
  O        33.5424007728       16.3299594266       13.6495840676
  O        34.2758990656       18.1808998012       14.7381262743
  O        29.5716436913       17.0728373742       14.5784211979
  O        33.6270708863       16.3297488431        2.4097672895
  O        34.3038966491       18.2535418074        1.4112095696
  O        31.6553218869       18.3153886197        2.1634875127
  O        30.3239471301       15.1586350042        0.0780199253
  O        28.5537133122       21.0350000276       14.9045855404
  O        28.5116412506       20.9509349745        1.4189413527
  O        27.4930438545       18.6110216174        2.7390258904
  O        26.6938706124       16.9307659493        1.4204304019
  O        13.1494387582       18.6927000943        2.5927249718
  O        13.9193328610       16.9160725357        1.4100366248
  O        50.5962203262       19.3502067223        0.0254846665
  O        47.6834861782       16.3270640696        2.4223814639
  O        46.9519391329       18.1759796593        1.3295821316
  O        11.0698459525       17.0154945757        1.4947842956
  O        47.6755275022       16.3355343479       13.6481917514
  O        46.9261227600       18.2357800084       14.6589916141
  O        49.5686498015       18.3177132446       13.9771019014
  O        10.3186246532       15.1001721753        0.0021866250
  O        52.6707697322       21.0278594698        1.2469309543
  O        12.1468376371       20.8911888875       14.6681289868
  O        13.1084790693       18.6135338676       13.3204755240
  O        13.9570168017       16.9869133200       14.6605720926
  O        30.0015856956       14.4366185109        2.6689331671
  O        28.0785808841       14.6579945667        1.4883377324
  O        32.1388068052       16.8610396901        0.0802322091
  O        30.9515002660       20.9528664859        2.4241126777
  O        32.9196506035       20.6548003243        1.3322731213
  O        29.5707173080       17.0735296295        1.5807588073
  O        30.8749100153       20.9554971339       13.6638230948
  O        32.8803767695       20.5860215979       14.6617327759
  O        31.6808686079       18.2629725873       14.0027352558
  O        28.2813027109       18.6751954544        0.0962191737
  O        32.4967362808       14.2116674752        1.3307597199
  O        32.3994754182       14.2203979844       14.8109771051
  O        29.8885522426       14.5118691433       13.4072087556
  O        28.0473304966       14.5858481654       14.7402257307
  O        17.8892450085        1.9667504968        2.6679031618
  O        18.9563344685        3.5272126049        1.4130646030
  O        39.1687306548       34.1390282998        0.0022902306
  O        43.2802395103       33.0590288554        2.3368577892
  O        42.0346183338       31.5064770632        1.2467982657
  O        20.3180646852        1.0372026005        1.4848923794
  O        43.2760757960       33.1826647127       13.5697860906
  O        42.0052783677       31.5841874882       14.5778741953
  O        40.5791733917       33.7753102032       13.9310152616
  O        22.3676472508        1.3850325113        0.0030008882
  O        36.6727408124       35.0999554114        1.2382491529
  O        16.4456911621        0.0644805296       14.6631606137
  O        17.9365515297        2.0434679911       13.3213352643
  O        18.9192010184        3.5931920784       14.6608314655
  O        29.8556828685       19.0389625246       12.1455630721
  O        29.7878742940       18.9030520830        4.0623930853
  O        31.0975346999       16.4863099880       12.0815663010
  O        31.4344098235       16.3433461412        3.9793700947
  O        30.1968274686       16.8479385957        9.2506381894
  O        30.4632656833       15.5457438315        6.1846788028
  O        31.4238000473       17.9427671387        6.9069011527
  O        30.6302668488       19.3557877064        9.5849180337
  O        28.7984226571       18.0998219187        6.4995136635
  O        39.4568086215       35.2438850500       11.9968709014
  O        19.1414173144        0.0045646169        3.9956360572
  O        41.9694147879       35.1724802645       12.0820612482
  O        21.6912642785       -0.0692549572        3.9011497220
  O        51.3652193314       18.6143320470       12.0003311422
  O        10.7512200523       18.7471910426        3.9099742480
  O        50.0801786262       16.4127941846       12.0865729515
  O         9.5244924617       16.4830083203        3.9963188939
 Zr         9.2971735101       16.0527243908       14.1772739913
 Zr        49.8365084578       16.0065944246        1.7514673306
 Zr        22.0737098628        0.0310854579       14.1836384724
 Zr        42.4613826827       35.1544467769        1.8063967671
 Zr        29.5993600810       19.1055539252       14.3206724871
 Zr        29.5777141918       19.1621857920        1.9153113350
 Zr        11.0384044370       19.0517697749        1.8327830817
 Zr        11.0442136441       19.1547449217       14.2458410606
 Zr        31.3575687730       16.0933864684        1.8715803019
 Zr        31.3873572328       16.0403757209       14.2870015721
 Zr        18.6016960731       -0.0000165128        1.7681507275
 Zr        18.5070659395       -0.0065066986       14.2089363031
 Zr        12.3024064312       16.3234884759       15.9852099842
 Zr        48.6167021380       18.8330387552        0.0150410083
 Zr        20.3164713237        2.4750675517       15.9855267056
 Zr        40.6445732699       32.6882818855       15.9733697448
 Zr        28.3416524775       16.3423910390        0.0912606099
 Zr        32.6287312226       18.8523655756        0.0745657600
  H        30.7793256645       15.6911253314       11.6182779713
  H        32.1867122722       17.6837420842       10.3954254589
  H        30.9093683894       14.6666954701        8.1811891168
