     575
 i =      203, E =     -4794.8993009401
  C        11.8588612039       14.0534827084       13.7364357024
  C        12.4563367454       12.8906099981       13.0182054176
  C        11.7046743578       12.1716554429       12.0765179995
  C        12.2810966484       11.1094811225       11.3841887539
  C        13.6217082396       10.7397501213       11.6118923468
  C        14.3548499378       11.4433668145       12.5853525459
  C        13.7819280631       12.5083207183       13.2768566147
  C        14.2612282395        9.6490875222       10.8384974180
  C        14.2563868824        9.6569678424        9.4168022332
  C        13.7432311145       10.7590982808        8.6628996861
  C        49.1269314759       21.2331822300       13.8745623364
  C        48.5502712323       22.4012052333       13.1475803923
  C        49.3001678349       23.0681966834       12.1662523930
  C        48.7332838351       24.1073807963       11.4330783898
  C        47.4029180839       24.5094359295       11.6620348797
  C        46.6721769860       23.8609788855       12.6759844414
  C        47.2345659857       22.8160322406       13.4053106368
  C        46.7726337505       25.5870870233       10.8647503520
  C        46.7614950675       25.5573718184        9.4429885546
  C        47.2613593692       24.4422566380        8.6994768719
  C        14.8603116116        8.5706340057        8.7035246425
  C        14.8921320195        8.5972045534       11.5151379305
  C        49.1132421490       21.2034535935        2.1504512864
  C        48.5279019976       22.3648334666        2.8775810383
  C        49.2670147262       23.0252398896        3.8707945891
  C        48.6907310061       24.0598091339        4.6022690592
  C        47.3604724472       24.4569567313        4.3637606970
  C        46.6402324860       23.8124239852        3.3398622500
  C        47.2137384151       22.7765151428        2.6080515833
  C        46.7220155356       25.5318888006        5.1548194665
  C        46.7336580846       25.5281638500        6.5765269411
  C        47.2490512561       24.4289400356        7.3329234467
  C        40.6282155560       17.1029529220        7.3313415832
  C        40.6499149144       17.1488104189        4.5225033203
  C        11.8830561666       14.0864754052        2.2906445556
  C        12.4723233616       12.9107368364        2.9947990262
  C        11.7148799416       12.1776038581        3.9210460299
  C        12.2815108760       11.0951748570        4.5894331497
  C        13.6203213782       10.7214076534        4.3575246126
  C        14.3582064415       11.4368946062        3.3965862955
  C        13.7927458832       12.5180392091        2.7239022363
  C        14.2539247076        9.6246764008        5.1279332525
  C        14.2525301901        9.6446215431        6.5497689019
  C        13.7426809823       10.7535742878        7.2968552132
  C        22.5120442833        3.2459869453       13.7464780902
  C        23.2248126934        4.3518511779       13.0448564939
  C        24.2198839089        4.0728470310       12.0960943881
  C        24.8454022833        5.1126840218       11.4126748595
  C        24.4921854677        6.4549652754       11.6567450430
  C        23.5251466105        6.7253641328       12.6423998847
  C        22.8950784571        5.6874000976       13.3244501155
  C        25.0974586289        7.5621943635       10.8803395370
  C        25.0721410806        7.5548364681        9.4583527925
  C        24.3731667958        6.5542195316        8.7110408147
  C        38.3018787305       31.9310338287       13.8460722742
  C        37.5696572886       30.8416307045       13.1400307889
  C        36.6085195418       31.1453708262       12.1639981204
  C        35.9901847972       30.1245720230       11.4478311631
  C        36.3190851601       28.7760221026       11.6866209523
  C        37.2495724218       28.4796410084       12.7000989266
  C        37.8719118872       29.4991708309       13.4151483535
  C        35.7184501109       27.6846592922       10.8887653881
  C        35.7512424767       27.7015067710        9.4676171840
  C        36.4579707115       28.7044741552        8.7318370849
  C        25.6947215139        8.6254642094        8.7384971924
  C        25.6937315368        8.6381065277       11.5507928448
  C        38.3293709512       31.9631994334        2.1621594121
  C        37.6070779127       30.8926106564        2.9072371099
  C        36.6813617712       31.2067413630        3.9140224974
  C        36.0684551210       30.1921335809        4.6465524891
  C        36.3665379699       28.8381549456        4.3948027058
  C        37.2707061549       28.5339482282        3.3587439134
  C        37.8863153622       29.5451750465        2.6279958358
  C        35.7536691884       27.7418220874        5.1790712592
  C        35.7692310985       27.7308621519        6.6010100462
  C        36.4668411766       28.7182959711        7.3652721462
  C        46.1356348812       26.6207843945        7.2866796084
  C        46.0881440752       26.5803177092        4.4787824624
  C        22.4629256708        3.2564265433        2.2621147540
  C        23.1609310029        4.3646389722        2.9819826814
  C        24.1645888728        4.0778538422        3.9210931797
  C        24.7962389188        5.1075492547        4.6145609651
  C        24.4447150973        6.4540653276        4.3919533287
  C        23.4645874723        6.7340064653        3.4208702638
  C        22.8283049482        5.7046542469        2.7277536150
  C        25.0760823305        7.5522832412        5.1662055953
  C        25.0617506462        7.5491338980        6.5889436775
  C        24.3661367823        6.5528875058        7.3442973106
  C        26.6234713271       17.8629463231       13.7764169509
  C        25.3160710043       17.9109248099       13.0532663210
  C        25.0543312644       18.9094294950       12.1016175030
  C        23.8405460677       18.9307227892       11.4171861771
  C        22.8507009531       17.9572763212       11.6625317067
  C        23.1080858768       16.9818472063       12.6444623308
  C        24.3240677069       16.9547701877       13.3260275962
  C        21.5770053982       17.9438714491       10.8984104674
  C        21.5770235043       17.9221968795        9.4758212421
  C        22.7827104808       17.7969573149        8.7161849624
  C        34.4225633903       17.2226396185       13.9087582280
  C        35.7142893395       17.1550604139       13.1640404378
  C        35.9261661145       16.1659057641       12.1906282449
  C        37.1078736581       16.1430431828       11.4542553271
  C        38.1125401860       17.1053048010       11.6759603377
  C        37.9047984133       18.0731294625       12.6767751044
  C        36.7195209390       18.1029002353       13.4077142055
  C        39.3697316172       17.1043113171       10.8932697697
  C        39.3673670084       17.1163155086        9.4720092555
  C        38.1613582378       17.2410183373        8.7131678524
  C        20.3304722237       17.9406013989        8.7669139156
  C        20.3521778213       17.9466806126       11.5803670901
  C        34.4692351696       17.2478723405        2.1915085394
  C        35.7698840415       17.1720244539        2.9177639631
  C        35.9816738779       16.1841640170        3.8914676775
  C        37.1683812778       16.1595573553        4.6185015011
  C        38.1711437694       17.1221054313        4.3909897347
  C        37.9647917873       18.0857771111        3.3867432570
  C        36.7760470689       18.1153759281        2.6625183086
  C        39.4182439385       17.1333569396        5.1859046633
  C        39.3922614537       17.1340396047        6.6067262124
  C        38.1731242556       17.2493000763        7.3467404862
  C        35.1388692037       26.6507860625        7.3037493945
  C        35.1528868446       26.6779809931        4.4949616579
  C        26.5824796576       17.7922589108        2.3631112240
  C        25.2676787596       17.8420564204        3.0651104435
  C        24.9972397943       18.8576970665        3.9945565298
  C        23.7740642582       18.8920706788        4.6575470608
  C        22.7933557191       17.9094042387        4.4166636936
  C        23.0584293111       16.9176213139        3.4550553592
  C        24.2812799045       16.8828369047        2.7878466543
  C        21.5276477864       17.8985451968        5.1862404552
  C        21.5517496365       17.8977834013        6.6077813329
  C        22.7703090031       17.7849070969        7.3500207072
  C        14.0470056085       17.8284591511        2.2946681975
  C        15.3508384687       17.8847298108        3.0211505228
  C        15.6087374206       18.8898717295        3.9665005024
  C        16.8173547214       18.9105657064        4.6601221466
  C        17.8026883475       17.9287206051        4.4312920929
  C        17.5492939094       16.9473802532        3.4541768473
  C        16.3403241494       16.9223496016        2.7617177928
  C        19.0716902267       17.9122578151        5.2007960459
  C        19.0703762559       17.9162465053        6.6234065087
  C        17.8631668973       17.8226995556        7.3850001451
  C        46.8055186882       17.2191362187        2.1651158481
  C        45.5168487895       17.1576704768        2.9140882227
  C        45.3122844809       16.1776425273        3.8976990368
  C        44.1321492755       16.1580708078        4.6364444394
  C        43.1265765720       17.1190022266        4.4139715788
  C        43.3289272930       18.0796844510        3.4045307110
  C        44.5096111443       18.1027713750        2.6664431666
  C        41.8731961400       17.1269590732        5.2026791866
  C        41.8763003413       17.1169725807        6.6247180626
  C        43.0839065404       17.2048083591        7.3862838359
  C        20.3170526565       17.9278506443        7.3321015783
  C        20.2961768506       17.8857453888        4.5189092758
  C        46.7837972114       17.2294391603       13.8861760520
  C        45.4779100275       17.1179328695       13.1752801583
  C        45.2587168346       16.1146577003       12.2191661325
  C        44.0691616170       16.0824960908       11.4954938250
  C        43.0691148783       17.0504602439       11.7112285542
  C        43.2779840098       18.0226045843       12.7072590018
  C        44.4688169068       18.0611282374       13.4258601947
  C        41.8236073326       17.0707826075       10.9125575268
  C        41.8511148422       17.0864963698        9.4915161104
  C        43.0720509007       17.1881804477        8.7526981681
  C        46.1534214007       26.6372181377        8.7212350685
  C        46.1627589982       26.6562683620       11.5308700405
  C        14.0456781871       17.8326763461       13.7044368166
  C        15.3669668239       17.9096287826       13.0156715569
  C        15.6400968492       18.9278094039       12.0900097550
  C        16.8694536302       18.9676931866       11.4361986348
  C        17.8529426368       17.9885000568       11.6821213099
  C        17.5867770326       16.9995056988       12.6464837777
  C        16.3595457325       16.9591953924       13.3040486818
  C        19.1199511004       17.9652507170       10.9130533149
  C        19.0954138400       17.9420770791        9.4916037340
  C        17.8754079183       17.8340289251        8.7509629972
  C        28.8130449980       14.0864714842        2.3678822339
  C        28.2075999607       12.9139312183        3.0617488639
  C        28.9241044529       12.1967773334        4.0308311883
  C        28.3269544050       11.1232447610        4.6875329009
  C        26.9994158624       10.7443994003        4.4014673497
  C        26.3053525526       11.4439321083        3.3976895271
  C        26.8998610347       12.5166981947        2.7387956233
  C        26.3283937247        9.6662705500        5.1642756861
  C        26.3048456480        9.6971873491        6.5853459490
  C        26.7980210066       10.8147756091        7.3307363370
  C        32.1562971624       21.2672352077        2.1549121072
  C        32.7415692707       22.4347588770        2.8768038457
  C        32.0007786649       23.0970275166        3.8674284752
  C        32.5734551322       24.1360689903        4.5952072641
  C        33.9015502025       24.5378922481        4.3533545191
  C        34.6230320253       23.8941618471        3.3305977389
  C        34.0531065400       22.8514199029        2.6042899259
  C        34.5379251269       25.6077195819        5.1536858458
  C        34.5419894610       25.5708224403        6.5748182766
  C        34.0407798441       24.4508463579        7.3107204965
  C        25.6942583364        8.6190864563        7.3037395546
  C        25.6964422977        8.6120642265        4.4908783151
  C        32.1031459904       21.2256975680       13.8777490966
  C        32.6933227843       22.3770590843       13.1344136130
  C        31.9612332677       23.0295162500       12.1303724154
  C        32.5412732360       24.0602677481       11.3946117408
  C        33.8665625578       24.4676727477       11.6446836412
  C        34.5808313159       23.8278772017       12.6757831689
  C        34.0057941856       22.7920991924       13.4071333160
  C        34.5066520754       25.5498083301       10.8625476928
  C        34.5243359587       25.5420719076        9.4408322053
  C        34.0317272019       24.4375812220        8.6771090684
  C        40.6152197083       17.0906046830        8.7655780299
  C        40.5914916160       17.0983302039       11.5755894183
  C        28.7246305812       14.0999371881       13.7761936206
  C        28.1207052599       12.9476667565       13.0456252458
  C        28.8540142922       12.2514943887       12.0724887802
  C        28.2751362972       11.1874916843       11.3849541152
  C        26.9463891433       10.7940939640       11.6431626120
  C        26.2315044220       11.4766242706       12.6454687714
  C        26.8090552623       12.5395424599       13.3365577737
  C        26.3045528652        9.7016535364       10.8731922747
  C        26.2945645447        9.7151724823        9.4511698861
  C        26.7909178780       10.8242566725        8.6964348696
  C        18.1355159070        3.1810811543        2.3222757320
  C        17.4062935089        4.2783485606        3.0209344152
  C        16.3900849614        4.0000425533        3.9479281889
  C        15.7423873656        5.0400526925        4.6114084231
  C        16.0948249979        6.3837139631        4.3721976819
  C        17.0847907607        6.6532090447        3.4090397212
  C        17.7338646165        5.6158314167        2.7440078634
  C        15.4704143166        7.4913942437        5.1352318077
  C        15.4855424778        7.4906400973        6.5569448131
  C        16.1870494213        6.4969765116        7.3100929949
  C        42.9459656104       31.8596665440        2.0780015586
  C        43.6464073598       30.7719517725        2.8220095631
  C        44.5919160566       31.0933066200        3.8080716376
  C        45.1976591017       30.0877757876        4.5557573754
  C        44.8712795017       28.7347124277        4.3408802589
  C        43.9454985033       28.4203385976        3.3276433512
  C        43.3366517437       29.4254681694        2.5796015574
  C        45.4888565237       27.6553909559        5.1440621933
  C        45.4929338652       27.6809214509        6.5657618389
  C        44.8058534196       28.6889710402        7.3123877016
  C        14.8565313637        8.5631065691        7.2693063833
  C        14.8752299023        8.5631964927        4.4566326253
  C        42.9464747125       31.9617591903       13.8039225836
  C        43.6918085759       30.8855642693       13.0904259959
  C        44.6563604922       31.1914975591       12.1181158447
  C        45.2779594492       30.1719280265       11.4003995713
  C        44.9542811090       28.8216085622       11.6380834467
  C        44.0208678783       28.5239133201       12.6489119566
  C        43.3925517970       29.5406668126       13.3610776572
  C        45.5633143606       27.7241878000       10.8528304140
  C        45.5334747819       27.7173927432        9.4315292010
  C        44.8271322925       28.7076082529        8.6785727312
  C        35.1298039846       26.6359152001        8.7382141742
  C        35.1144713952       26.6084417696       11.5479248146
  C        18.1487430773        3.2471261914       13.7014847345
  C        17.4302788067        4.3439816638       12.9921126043
  C        16.4146685274        4.0527513710       12.0689718780
  C        15.7663890786        5.0834025266       11.3935879633
  C        16.1214843276        6.4285802095       11.6159395345
  C        17.1133752377        6.7119391976       12.5726613438
  C        17.7610281011        5.6830019289       13.2524231635
  C        15.4908872282        7.5242555806       10.8435247574
  C        15.4965979365        7.5075601859        9.4223918406
  C        16.1932954235        6.5058090879        8.6756978825
  H        10.6725270622       12.4657063780       11.8995038470
  H        11.6948639570       10.5509534313       10.6576427981
  H        15.3919310269       11.1689062536       12.7670103998
  H        14.3514682261       13.0715945742       14.0121935662
  H        13.3763491583       11.6312826371        9.1961985338
  H        50.3227426607       22.7478843868       11.9812356704
  H        49.3197022768       24.6223992300       10.6752802983
  H        45.6428917560       24.1622143438       12.8595542216
  H        46.6637203467       22.2911681058       14.1677859539
  H        47.6299640252       23.5758955614        9.2411382756
  H        14.8727087354        8.5885346708       12.6034492465
  H        50.2869489626       22.7021535382        4.0659088945
  H        49.2690859456       24.5750487168        5.3659471338
  H        45.6110119793       24.1100903169        3.1504666382
  H        46.6530606095       22.2547262988        1.8361327602
  H        47.6078648465       23.5518246612        6.8020467016
  H        40.6568932007       17.1236411860        3.4345036378
  H        48.6872671852       14.0949745639       15.7949612694
  H        10.6814167196       12.4666509891        4.0985056424
  H        11.6898016174       10.5247814062        5.3021951829
  H        15.3936450821       11.1590516330        3.2106182783
  H        14.3651133663       13.0873620236        1.9953587654
  H        13.3759972612       11.6222617863        6.7582425016
  H        47.9302696756       14.2183455567        1.7160191357
  H        47.7801381841       14.3742298237       14.4904431508
  H        49.0844173293       18.5527078993        2.8726748769
  H        10.4163641794       14.1343226585        0.0038409973
  H        24.4813246673        3.0345078368       11.9044965353
  H        25.6172528174        4.8947922037       10.6776880745
  H        23.2441714613        7.7580995087       12.8382472979
  H        22.1266756542        5.8882989814       14.0670052597
  H        23.8112336499        5.7972187241        9.2502908729
  H        36.3717292203       32.1885695443       11.9686541945
  H        35.2448077020       30.3622940543       10.6920822183
  H        37.5100448838       27.4406017667       12.8907840159
  H        38.6167731691       29.2797106926       14.1763569040
  H        37.0242291623       29.4525589714        9.2789682528
  H        25.7290485025        8.6209468848       12.6386366973
  H        36.4631070420       32.2522431440        4.1195883479
  H        35.3450661188       30.4411708624        5.4198078672
  H        37.5126505343       27.4922879822        3.1583968378
  H        38.6067887972       29.3155081661        1.8467253098
  H        37.0411465303       29.4764604309        6.8406095349
  H        46.1096950737       26.5878521782        3.3907503961
  H        44.6683212108       35.1162949059       15.8088758397
  H        24.4403633322        3.0392782903        4.0893512797
  H        25.5775545903        4.8777047811        5.3358934865
  H        23.1816494771        7.7689322497        3.2395290832
  H        22.0558143313        5.9187262549        1.9927362961
  H        23.7982645198        5.7952723269        6.8120576905
  H        44.9539445020       34.3904970718        1.7003532896
  H        44.9016911292       34.2068436055       14.4855538882
  H        40.6663823918       33.2096075838        2.8584130715
  H        23.1504796609        1.9584616162        0.0097430892
  H        25.8130030126       19.6654787522       11.9132500617
  H        23.6441485819       19.7108907069       10.6848185493
  H        22.3561270897       16.2209242454       12.8434063598
  H        24.5325939478       16.1874964074       14.0679761599
  H        23.7238410576       17.6786148378        9.2453683538
  H        35.1529299922       15.4181770882       12.0280322753
  H        37.2713563281       15.3691276297       10.7073113936
  H        38.6730207944       18.8234426513       12.8522693027
  H        36.5427569374       18.8642462265       14.1639948424
  H        37.2213588956       17.3646049696        9.2432554820
  H        20.3585503248       17.9857836744       12.6682724765
  H        35.1993550902       15.4500516513        4.0706289216
  H        37.3334652577       15.3896395242        5.3690642734
  H        38.7329962515       18.8352847274        3.2079613064
  H        36.5947874344       18.8761183902        1.9069308439
  H        37.2420005000       17.3798153917        6.8025670047
  H        35.1180299657       26.7096167986        3.4076399264
  H        28.5022805886       21.0858748218       15.8881697674
  H        25.7555717508       19.6148956863        4.1793645338
  H        23.5637770717       19.6839349214        5.3731621607
  H        22.3096497184       16.1515146595        3.2644584315
  H        24.5016845342       16.1063978309        2.0591156274
  H        23.7021504399       17.6571378119        6.8072707856
  H        28.9741441203       21.7238228947        1.7749788097
  H        29.1893709360       21.7226976921       14.5626506694
  H        32.0981531717       18.5176115099        3.0010144962
  H        27.4036101658       19.0772255710        0.0863953568
  H        14.8516596814       19.6508562915        4.1422276540
  H        17.0134000697       19.6967701038        5.3860614140
  H        18.2990927413       16.1810782786        3.2682633967
  H        16.1338997357       16.1514751144        2.0230455401
  H        16.9203229586       17.7079934549        6.8581533507
  H        46.0951360486       15.4442330242        4.0761428146
  H        43.9741989558       15.3893357680        5.3896970946
  H        42.5611452055       18.8303060850        3.2287104135
  H        44.6816877443       18.8585334699        1.9036203464
  H        44.0268366977       17.3189152624        6.8591238449
  H        20.2907262635       17.9088334200        3.4306004710
  H        46.0367928678       15.3752717266       12.0435929068
  H        43.9026755824       15.3045608898       10.7535294511
  H        42.5108635289       18.7744639347       12.8804880497
  H        44.6516977368       18.8311918477       14.1712977081
  H        44.0058843822       17.2883277459        9.2982273837
  H        46.1997937875       26.6829638012       12.6183060008
  H        52.7412951852       21.0627232634        0.1997993550
  H        14.8790952905       19.6813928317       11.8996483980
  H        17.0807025646       19.7600157479       10.7212781966
  H        18.3377988761       16.2373466427       12.8439172390
  H        16.1384965415       16.1827847712       14.0324072323
  H        16.9417359491       17.7279667806        9.2950698313
  H        52.3227997147       21.6734636519       14.2891369422
  H        52.0136104023       21.7023525037        1.5008451634
  H        49.0674509389       18.6076389080       13.1990235172
  H        13.2477210027       19.0161525930       15.9726261193
  H        29.9430940497       12.4999244314        4.2607768618
  H        28.8845791617       10.5669729780        5.4378285229
  H        25.2794031131       11.1628471469        3.1690468068
  H        26.3602376254       13.0778023797        1.9799258165
  H        27.1578050068       11.6857948869        6.7911163979
  H        30.9808822472       22.7735243405        4.0621090627
  H        31.9948023742       24.6498388914        5.3597325599
  H        35.6508078237       24.1956418965        3.1390746490
  H        34.6152418359       22.3276029519        1.8347298864
  H        33.6864469570       23.5827705492        6.7623576318
  H        25.7329562727        8.5892111446        3.4031282754
  H        30.9408449200       22.7080782997       11.9338612640
  H        31.9670446052       24.5684610003       10.6229564910
  H        35.6065888275       24.1317802609       12.8741194482
  H        34.5620421420       22.2762103115       14.1863283801
  H        33.6706783668       23.5590481872        9.2039765350
  H        40.5825369654       17.0633332325       12.6633678913
  H        32.5138047817       14.1496736535        0.2631247255
  H        29.8797386218       12.5537901944       11.8739509530
  H        28.8516529137       10.6440540246       10.6395351077
  H        25.2036610772       11.1857745665       12.8524974062
  H        26.2533164728       13.0813816962       14.0981454622
  H        27.1431617908       11.7033505569        9.2279884952
  H        33.2902484239       14.1870963937       14.4250409048
  H        33.4104137732       14.4115031848        1.6039094269
  H        32.1101287330       18.5443963875       13.1637490594
  H        30.2290052932       14.1930553700        0.0733557524
  H        16.1176453974        2.9635690416        4.1339390956
  H        14.9525761962        4.8207475527        5.3266932587
  H        17.3677892371        7.6860273378        3.2164484638
  H        18.5164216964        5.8184564069        2.0167078038
  H        16.7536303631        5.7396714488        6.7765655143
  H        44.8281560851       32.1404069999        3.9822356942
  H        45.9375333257       30.3415846533        5.3116785662
  H        43.6828815408       27.3782548971        3.1575029788
  H        42.6000745470       29.1901669680        1.8148883208
  H        44.2305995062       29.4368015172        6.7740606960
  H        14.8516874393        8.5465160608        3.3684069197
  H        44.8998374039       32.2341951238       11.9266538762
  H        46.0248557645       30.4132191905       10.6471700417
  H        43.7640574866       27.4841649490       12.8405703646
  H        42.6461513550       29.3178989450       14.1196287666
  H        44.2687281737       29.4705621413        9.2131716805
  H        35.0701441678       26.6207574432       12.6353044977
  H        36.6051933404       35.1342543464        0.1856405009
  H        16.1432734114        3.0132031376       11.8995802218
  H        14.9737696910        4.8566303018       10.6838088515
  H        17.3973730159        7.7473505277       12.7490976161
  H        18.5443636267        5.8934233792       13.9767025194
  H        16.7647778674        5.7556105445        9.2141453838
  H        36.2788962900       34.4825944269       14.2680091139
  H        36.3812211751       34.2091348267        1.5045273277
  H        40.5805118757       33.2030608260       13.1484968245
  H        17.4709353443        1.9477998551       15.9690447603
  H        28.7091451160       19.0225727392        4.3003638026
  H        29.0976344773       19.2090984441       11.5445212703
  H        32.7412320909       16.3786521805       10.4370263245
  H        31.3577728454       15.7378084029        4.6287682262
  H        28.2178775839       17.3447601561        6.6320725182
  H        31.2392305176       19.8645726010        9.4422132479
  H        33.0056777932       17.4273546767        9.2239508196
  H        29.2825082688       16.2080185420        7.9974648401
  H        18.8537860764        0.8691327635        4.3404448648
  H        40.5278557461       35.2289070438       11.9468388632
  H        42.3248995128       34.4196154026       11.5849822235
  H        22.0875914849        0.6919989633        4.3567863498
  H        11.5969292868       18.7129709446        4.3876734563
  H        52.2651242113       18.4310948815       11.6722990639
  H        49.2548191111       16.4769861216       11.5794146677
  H        10.1505851873       15.7981766753        4.2976780150
  H        50.8502326225       17.6926568752       11.9490362622
  H        10.0463717101       17.3945598924        4.0570337763
  H        20.2150054071        0.0022634124        4.0470214649
  H        39.1837798895       36.1245021858       11.6812244149
  H        33.6311843485       17.1732574861        6.4932134302
 Ni        30.9014709004       17.8954378063       10.8330550311
 Ni        31.4108925406       16.8089266496        7.4977081002
 Ni        29.7230497669       18.6144841390        7.9894737678
 Ni        30.0547896453       17.3580557161        5.1621911910
  O        10.6499833141       14.3651769406       13.4807579983
  O        12.6131725063       14.6575405622       14.5788310485
  O        49.1478789563       16.8459086149       15.9845952573
  O        50.3503004318       20.9357387376       13.6429380752
  O        48.3485620507       20.5932665220       14.6608080121
  O        11.0517391418       17.0538370020       14.4956802219
  O        50.3209607648       20.8816063780        2.4119656056
  O        48.3467248317       20.5866967451        1.3322224003
  O        49.5437512506       18.2483939253        2.0733089565
  O        12.3591236390       18.6246351807        0.0048351454
  O        48.6932599469       14.1485872035       14.7462120513
  O         8.2099167302       14.2104019298        1.3276242581
  O        10.7353449494       14.5067808478        2.6694122485
  O        12.5717940695       14.5828337043        1.3335986776
  O        22.8451056186        2.0444382815       13.4817803406
  O        21.6059493361        3.5927767393       14.5841446751
  O        42.0584173425       34.1376927652       15.9738403927
  O        37.9817514226       33.1389894515       13.5677885324
  O        39.2183733788       31.5766681234       14.6619732601
  O        20.3086407961        1.0400229701       14.4970833122
  O        38.0250087522       33.1868706494        2.4200046667
  O        39.2189891567       31.5838501135        1.3320707678
  O        40.6523951062       33.7695509346        2.0652939141
  O        18.2555137244        1.3764888658        0.0018841922
  O        44.6222009936       35.1005951847       14.7536658569
  O        24.2054411659        0.0000087264        1.3258475340
  O        22.7532064483        2.0579567229        2.5890096385
  O        21.6248461952        3.5963868769        1.3483508781
  O        27.5009555606       18.7545481494       13.4903876842
  O        26.7659365368       16.9362810779       14.6477728574
  O        30.6628768159       19.4043641214        0.0674544651
  O        33.5436778778       16.3314188174       13.6442986797
  O        34.2765354847       18.1796157906       14.7383998147
  O        29.5725964944       17.0668293473       14.5788017545
  O        33.6109615086       16.3292871366        2.4184359743
  O        34.3028538767       18.2484786877        1.4134407871
  O        31.6517044538       18.3225090305        2.1597440515
  O        30.3240384793       15.1597538965        0.0794292797
  O        28.5527531000       21.0348604047       14.8334781681
  O        28.5107728760       20.9511948172        1.4102188838
  O        27.4903444098       18.6115649166        2.7321504523
  O        26.6926835847       16.9307275671        1.4187771465
  O        13.1490578624       18.6929307224        2.5925336467
  O        13.9195602638       16.9162400074        1.4103761007
  O        50.5962380120       19.3502193842        0.0256039537
  O        47.6834392807       16.3269523438        2.4224950065
  O        46.9511135495       18.1757086610        1.3302772741
  O        11.0698947228       17.0155156016        1.4947066429
  O        47.6753492275       16.3355979574       13.6481579623
  O        46.9259588590       18.2359094763       14.6589535110
  O        49.5686661375       18.3177007900       13.9772192975
  O        10.3187113662       15.1001469381        0.0022082697
  O        52.6707849700       21.0278752951        1.2469249416
  O        12.1468375664       20.8912302679       14.6681857463
  O        13.1077480455       18.6137868623       13.3206872021
  O        13.9571459815       16.9871011328       14.6603246683
  O        30.0026060103       14.4361638692        2.6688956347
  O        28.0791030232       14.6588824431        1.4890730031
  O        32.1327778572       16.8649823051        0.0815254237
  O        30.9518044369       20.9502159136        2.4256059676
  O        32.9187951474       20.6546640540        1.3310756979
  O        29.5676444344       17.0772636891        1.5772504262
  O        30.8734166310       20.9429806122       13.6573382902
  O        32.8792643285       20.5851467780       14.6615255136
  O        31.6798319647       18.2636509743       13.9899613732
  O        28.2897059542       18.6794030247        0.0844690320
  O        32.4944767465       14.2139843472        1.3337298043
  O        32.3999276964       14.2193378033       14.8118055251
  O        29.8791148523       14.5125765244       13.4059947305
  O        28.0442815707       14.5866131242       14.7432534047
  O        17.8891826779        1.9666819110        2.6679140483
  O        18.9562729912        3.5271926248        1.4130908619
  O        39.1686433566       34.1389374964        0.0023143756
  O        43.2802663657       33.0590049560        2.3368513950
  O        42.0346044328       31.5064388624        1.2467779254
  O        20.3179051343        1.0370413916        1.4850159813
  O        43.2760895998       33.1826155967       13.5697643343
  O        42.0052990463       31.5841136807       14.5778798085
  O        40.5791359020       33.7752324161       13.9309708207
  O        22.3675493161        1.3849287134        0.0029839603
  O        36.6727476563       35.0998923307        1.2383166266
  O        16.4456227823        0.0644842473       14.6632219263
  O        17.9365079967        2.0434769451       13.3212791371
  O        18.9191271012        3.5931910933       14.6608299436
  O        29.8194439032       18.8211677320       12.0706273241
  O        29.6632777454       18.9765773922        4.0845635619
  O        31.1478299478       16.4164575970       12.0598087723
  O        31.2694923361       16.4888864312        3.9909138637
  O        32.3307994708       17.0125533385        9.8145320119
  O        29.8220440709       16.7860822101        8.5823632392
  O        30.4509840414       15.9809888166        6.2358132632
  O        32.9609022109       17.6508870321        7.0075062549
  O        30.4928701216       19.2563896688        9.5828337831
  O        28.7980301665       18.0978243887        6.4159778246
  O        39.4567158342       35.2438425463       11.9968797332
  O        19.1415360740        0.0046400558        3.9956347909
  O        41.9695116862       35.1726742029       12.0821007553
  O        21.6912337140       -0.0694168919        3.9010337872
  O        51.3652391495       18.6143052008       12.0002717867
  O        10.7511669225       18.7471267796        3.9100164684
  O        50.0792099518       16.4127681981       12.0867069808
  O         9.5246438989       16.4830528481        3.9963052867
 Zr         9.2976951108       16.0527443299       14.1773548478
 Zr        49.8371019969       16.0066175688        1.7514649898
 Zr        22.0735584536        0.0309009928       14.1836960926
 Zr        42.4611697735       35.1543168468        1.8062177928
 Zr        29.6079249701       19.0813700335       14.2707120265
 Zr        29.5809904628       19.1824791969        1.8753729490
 Zr        11.0386707672       19.0518834852        1.8329350383
 Zr        11.0444506049       19.1547913597       14.2457818975
 Zr        31.3424354340       16.1014854356        1.8859261123
 Zr        31.3903764411       16.0343643971       14.2834344890
 Zr        18.6014457436       -0.0005430152        1.7683113270
 Zr        18.5068541228       -0.0068059233       14.2088576552
 Zr        12.3029830648       16.3234650691       15.9852797924
 Zr        48.6172022093       18.8332448912        0.0152912656
 Zr        20.3161218507        2.4746003271       15.9855068828
 Zr        40.6440150649       32.6879675160       15.9732889296
 Zr        28.3430374921       16.3407079530        0.0924748294
 Zr        32.6258592540       18.8531465840        0.0711521033
  O        30.4213619515       20.1529544951        6.8263153451
  H        31.3383776973       19.8141656747        6.7313556443
  H        30.0475761525       19.9648214649        5.9247188370
  H        30.4085216254       15.8169191933       11.8338518081
