     571
 i =      157, E =     -4761.6872099665
  C        11.8587558368       14.0535926802        5.7415635539
  C        12.4562730987       12.8906068965        5.0232860314
  C        11.7045914397       12.1716967895        4.0816082574
  C        12.2809726244       11.1094792268        3.3892720788
  C        13.6215289945       10.7396477535        3.6170399919
  C        14.3546849720       11.4432362216        4.5905009188
  C        13.7818058575       12.5082294187        5.2819971650
  C        14.2610780096        9.6489914073        2.8436348609
  C        14.2564258168        9.6569428398        1.4219313996
  C        13.7432645502       10.7590840260        0.6680428807
  C        49.1266292263       21.2332452005        5.8797626967
  C        48.5498132554       22.4011357768        5.1526535777
  C        49.2999075898       23.0684976205        4.1717304652
  C        48.7329630700       24.1075970117        3.4384895785
  C        47.4023974104       24.5091959042        3.6670365160
  C        46.6714018785       23.8602800209        4.6804933586
  C        47.2338461826       22.8154089917        5.4099045332
  C        46.7721906177       25.5868986165        2.8697391677
  C        46.7612709356       25.5573347634        1.4479723217
  C        47.2612325528       24.4422496641        0.7044861822
  C        14.8603317296        8.5705928045        0.7086543372
  C        14.8918050320        8.5969989121        3.5202698061
  C        49.1131040698       21.2034159513       10.1453543938
  C        48.5277457756       22.3647852198       10.8724901239
  C        49.2670269663       23.0255573088       11.8653307895
  C        48.6907192454       24.0601229005       12.5967867608
  C        47.3602860850       24.4568525195       12.3586018287
  C        46.6398120230       23.8118827708       11.3351646996
  C        47.2133390079       22.7759567254       10.6033869035
  C        46.7218619089       25.5318332163       13.1496318703
  C        46.7335775718       25.5281857752       14.5713363126
  C        47.2490199846       24.4289800811       15.3277235029
  C        40.6190521063       17.0817363728       15.3105184596
  C        40.6276553163       17.0942241226       12.5008416167
  C        11.8828938569       14.0865461371       10.2854679547
  C        12.4722142480       12.9107120975       10.9897050548
  C        11.7147005672       12.1775399227       11.9158347972
  C        12.2812961947       11.0950979003       12.5842772626
  C        13.6201192145       10.7213805229       12.3524691085
  C        14.3580959911       11.4369495109       11.3916736383
  C        13.7926742274       12.5181114487       10.7189602819
  C        14.2537276929        9.6246106899       13.1228585684
  C        14.2525347544        9.6446025078       14.5446975182
  C        13.7427034090       10.7535596402       15.2917874185
  C        22.5085280857        3.2438932953        5.7506901021
  C        23.2159283396        4.3494512368        5.0447529593
  C        24.2112640730        4.0702570187        4.0967555193
  C        24.8329168479        5.1102890504        3.4106890536
  C        24.4742866866        6.4512353406        3.6525058174
  C        23.5057618469        6.7219934302        4.6361956285
  C        22.8798549916        5.6838655172        5.3209387477
  C        25.0789952967        7.5585681577        2.8778088480
  C        25.0599396082        7.5510858724        1.4562053533
  C        24.3647001853        6.5501362971        0.7058965866
  C        38.3038535394       31.9275366378        5.8462408130
  C        37.5779798903       30.8374813048        5.1317413285
  C        36.6190229849       31.1409895273        4.1530195262
  C        36.0034745900       30.1211210350        3.4320536723
  C        36.3311989923       28.7713168444        3.6675668368
  C        37.2618357167       28.4752911703        4.6816066177
  C        37.8814686773       29.4938840242        5.4014792299
  C        35.7271281997       27.6794602077        2.8698456097
  C        35.7527085621       27.6958636212        1.4480679321
  C        36.4545577051       28.6996136519        0.7089193785
  C        25.6859446799        8.6217116834        0.7400204146
  C        25.6711085334        8.6341003629        3.5520647897
  C        38.3264380613       31.9625077022       10.1535348832
  C        37.5985360088       30.8898879178       10.8896335372
  C        36.6675630985       31.1997830305       11.8928244404
  C        36.0522545852       30.1818550592       12.6185423361
  C        36.3540615665       28.8289967214       12.3647497714
  C        37.2614087113       28.5290686828       11.3303433325
  C        37.8786199170       29.5435025760       10.6054612903
  C        35.7451536865       27.7305954453       13.1491281506
  C        35.7617511178       27.7222479640       14.5709984526
  C        36.4588280921       28.7123847490       15.3322254806
  C        46.1355777670       26.6208303280       15.2814651034
  C        46.0878781008       26.5801689212       12.4735740282
  C        22.4632873800        3.2557636747       10.2554918977
  C        23.1633354752        4.3646621072       10.9729105347
  C        24.1717751078        4.0787731750       11.9069861598
  C        24.8044146040        5.1091726726       12.5985119720
  C        24.4485220276        6.4549013808       12.3788821952
  C        23.4638491658        6.7342040272       11.4124788310
  C        22.8269235952        5.7040893243       10.7210407796
  C        25.0782588340        7.5527944771       13.1548898371
  C        25.0606434365        7.5474389059       14.5774542842
  C        24.3631040185        6.5496168019       15.3290886379
  C        26.6371434969       17.8288215100        5.7478797675
  C        25.3262462784       17.8787756563        5.0316699208
  C        25.0631312745       18.8761673004        4.0794158249
  C        23.8442552119       18.9022709228        3.4046245911
  C        22.8518833327       17.9335264166        3.6584998983
  C        23.1104004173       16.9603515632        4.6422972486
  C        24.3303958458       16.9301700978        5.3165475765
  C        21.5766707431       17.9221295744        2.8975884161
  C        21.5766060840       17.9004154328        1.4750119053
  C        22.7816332156       17.7703182778        0.7148071234
  C        34.4378410256       17.1952787554        5.9188204707
  C        35.7314462139       17.1410810951        5.1761208620
  C        35.9381488080       16.1656366354        4.1882061009
  C        37.1182572580       16.1497123044        3.4501789317
  C        38.1249659924       17.1075185007        3.6804669629
  C        37.9218038498       18.0630023597        4.6944621133
  C        36.7384337206       18.0846631288        5.4293786875
  C        39.3777796530       17.1127940903        2.8907114481
  C        39.3691483443       17.1154745741        1.4687210363
  C        38.1595204130       17.2322613656        0.7144008493
  C        20.3303674750       17.9241680409        0.7662174333
  C        20.3519424831       17.9284127470        3.5799681530
  C        34.4383540873       17.2395045288       10.1882338577
  C        35.7380176207       17.1351351428       10.9124587448
  C        35.9317575358       16.1675532283       11.9098272113
  C        37.1225488966       16.1336775877       12.6317569929
  C        38.1474624563       17.0665305716       12.3778129808
  C        37.9580135388       18.0072572218       11.3476362399
  C        36.7675931034       18.0460413787       10.6282157455
  C        39.3976022439       17.0811279059       13.1695231256
  C        39.3791080516       17.1001805304       14.5911794504
  C        38.1646821168       17.2238108077       15.3376011353
  C        35.1347800677       26.6418017210       15.2758008821
  C        35.1505919594       26.6620714562       12.4667238170
  C        26.5716931483       17.8281533299       10.3235475782
  C        25.2578263130       17.8722558237       11.0314992206
  C        25.0009343898       18.8660308751       11.9880715583
  C        23.7825905467       18.8913738735       12.6609771819
  C        22.7928113839       17.9218042698       12.4026950472
  C        23.0452304926       16.9523852592       11.4151580011
  C        24.2637368672       16.9256287321       10.7395728845
  C        21.5288930976       17.9024152951       13.1748176540
  C        21.5520017535       17.8881164936       14.5963294804
  C        22.7693984864       17.7641038509       15.3384917792
  C        14.0467405416       17.8293845012       10.2884172124
  C        15.3514849483       17.8875328350       11.0129760002
  C        15.6084543027       18.8919363991       11.9592503901
  C        16.8175500602       18.9134550040       12.6519697965
  C        17.8038142845       17.9333515396       12.4205190806
  C        17.5517548998       16.9534097089       11.4417844407
  C        16.3421697203       16.9273128434       10.7506500442
  C        19.0726347380       17.9152971798       13.1899499242
  C        19.0707715460       17.9107637379       14.6124884514
  C        17.8633820581       17.8156334532       15.3736101514
  C        46.8017216860       17.2158397507       10.1568199073
  C        45.5076312452       17.1443044503       10.8968007259
  C        45.3028226996       16.1595732952       11.8759613458
  C        44.1186052704       16.1299955317       12.6080455411
  C        43.1074901045       17.0849664170       12.3842139181
  C        43.3087819523       18.0483334115       11.3769807165
  C        44.4939965780       18.0818108116       10.6455649099
  C        41.8543056751       17.0880748642       13.1751398307
  C        41.8638300981       17.0930544660       14.5975752840
  C        43.0747095324       17.1924265031       15.3526550732
  C        20.3173624811       17.9166941160       15.3211044830
  C        20.2968935641       17.8953823745       12.5079616778
  C        46.7854077674       17.2323430878        5.8865404064
  C        45.4843259078       17.1278952127        5.1662279398
  C        45.2670381574       16.1276291600        4.2063314748
  C        44.0800987020       16.0990327332        3.4781614445
  C        43.0803909034       17.0679470156        3.6920382613
  C        43.2890679096       18.0395704857        4.6888206015
  C        44.4768873979       18.0741975901        5.4125584623
  C        41.8324025981       17.0852089081        2.8971020797
  C        41.8529009790       17.0901914812        1.4756980479
  C        43.0696322456       17.1881439931        0.7297393454
  C        46.1533049880       26.6372439719        0.7262232002
  C        46.1622390910       26.6560126146        3.5358747470
  C        14.0453245208       17.8315358097        5.7085062296
  C        15.3662598900       17.9049135879        5.0175281327
  C        15.6412247494       18.9209792339        4.0900954990
  C        16.8703825959       18.9573306210        3.4353523076
  C        17.8522043942       17.9765289874        3.6818771193
  C        17.5840021210       16.9892905079        4.6475250768
  C        16.3570539372       16.9525881405        5.3059805891
  C        19.1194683674       17.9498633993        2.9127775333
  C        19.0952700772       17.9274316373        1.4911218728
  C        17.8752886067       17.8231037843        0.7499159260
  C        28.7916481644       14.1187535168       10.3982383474
  C        28.1938093643       12.9402545902       11.0870983351
  C        28.9177141014       12.2082484075       12.0396716775
  C        28.3253114252       11.1249556459       12.6844672616
  C        26.9951869403       10.7519732679       12.4032484683
  C        26.2939349773       11.4656722211       11.4146588262
  C        26.8841241954       12.5469760325       10.7664922336
  C        26.3279668031        9.6674669808       13.1597895456
  C        26.3045074640        9.6948636422       14.5806292842
  C        26.8001879269       10.8093391559       15.3292383819
  C        32.1756293294       21.2471479100       10.1089812262
  C        32.7608015846       22.4143374722       10.8331458438
  C        32.0114442965       23.0798763806       11.8155625233
  C        32.5791622096       24.1163717454       12.5513279091
  C        33.9107773330       24.5155314010       12.3247481361
  C        34.6421314758       23.8673579926       11.3114171725
  C        34.0779194796       22.8250217504       10.5787733272
  C        34.5390594237       25.5905382292       13.1268010734
  C        34.5395648884       25.5591519596       14.5484673590
  C        34.0382605215       24.4413166328       15.2872434726
  C        25.6910573270        8.6163733874       15.2954273699
  C        25.6977791557        8.6149273418       12.4825244081
  C        32.1202249575       21.1951161717        5.8442130768
  C        32.7082906496       22.3526641735        5.1061187482
  C        31.9753028720       23.0091033512        4.1052290157
  C        32.5512901701       24.0485049338        3.3783630758
  C        33.8754848333       24.4591146901        3.6305681562
  C        34.5901138816       23.8160347750        4.6594296823
  C        34.0176220508       22.7738533024        5.3845450824
  C        34.5137003991       25.5433298066        2.8482642944
  C        34.5269570000       25.5350521402        1.4260787047
  C        34.0322411587       24.4299547415        0.6641293377
  C        40.6132862653       17.0851473257        0.7557163343
  C        40.6035178274       17.1142223032        3.5661081371
  C        28.7350128004       14.0720528729        5.7896071603
  C        28.1179534450       12.9244344889        5.0606105282
  C        28.8541301047       12.2106421593        4.1022776089
  C        28.2678611399       11.1545532408        3.4096426984
  C        26.9295377026       10.7850561101        3.6508736952
  C        26.2107462159       11.4836411232        4.6388292779
  C        26.7954443148       12.5409441697        5.3333336965
  C        26.2859259699        9.6963933029        2.8777189296
  C        26.2842302112        9.7096755161        1.4561558190
  C        26.7890831332       10.8172339728        0.7050808935
  C        18.1353642631        3.1809805692       10.3171824710
  C        17.4060006334        4.2782090362       11.0157383144
  C        16.3904447585        3.9998167824       11.9434305993
  C        15.7426685173        5.0397811432       12.6069054335
  C        16.0943752142        6.3835308339       12.3670518207
  C        17.0835277689        6.6530793229       11.4030518522
  C        17.7326577740        5.6157536815       10.7380136722
  C        15.4700999478        7.4912320407       13.1301259411
  C        15.4854485270        7.4905566963       14.5518402754
  C        16.1870398403        6.4969565955       15.3049986768
  C        42.9458616916       31.8594864450       10.0728733530
  C        43.6462526717       30.7718444597       10.8167877436
  C        44.5918327612       31.0931801280       11.8028140161
  C        45.1975571118       30.0876447354       12.5504688113
  C        44.8710871274       28.7345800668       12.3356586813
  C        43.9452427472       28.4202218026       11.3224669274
  C        43.3364019436       29.4253541057       10.5744352584
  C        45.4886888274       27.6552988342       13.1388516443
  C        45.4928788626       27.6809590916       14.5605426042
  C        44.8057910705       28.6890093166       15.3071595666
  C        14.8565478424        8.5630786972       15.2642207419
  C        14.8748230337        8.5630208672       12.4515548501
  C        42.9465539719       31.9615452500        5.8090338991
  C        43.6917620755       30.8854519814        5.0955543468
  C        44.6563582076       31.1913493752        4.1232443700
  C        45.2778303689       30.1717525864        3.4054948523
  C        44.9539649007       28.8214372097        3.6430611830
  C        44.0204591898       28.5237840526        4.6538272397
  C        43.3922447563       29.5405544008        5.3660342705
  C        45.5629922425       27.7240360342        2.8578155297
  C        45.5333457761       27.7174029239        1.4365178214
  C        44.8270550001       28.7076475484        0.6835538277
  C        35.1293459032       26.6290422534        0.7210045895
  C        35.1247815849       26.6025045854        3.5307120599
  C        18.1484551262        3.2468189478        5.7066479847
  C        17.4299331241        4.3436776364        4.9972973080
  C        16.4147964897        4.0524531828        4.0736370051
  C        15.7665078712        5.0831131107        3.3982622704
  C        16.1211405085        6.4283457984        3.6210649580
  C        17.1124713455        6.7116878988        4.5783883399
  C        17.7601060021        5.6827435400        5.2581401483
  C        15.4906407664        7.5240754493        2.8486654788
  C        15.4965497117        7.5074840560        1.4275321592
  C        16.1932854875        6.5057800028        0.6808120555
  H        10.6724548634       12.4658124703        3.9045991278
  H        11.6946746705       10.5509709998        2.6627600784
  H        15.3917125227       11.1686387007        4.7722469631
  H        14.3512575276       13.0714679770        6.0174318484
  H        13.3762656128       11.6312046672        1.2013712516
  H        50.3226378780       22.7484960139        3.9870484816
  H        49.3194787869       24.6228972964        2.6809583817
  H        45.6418824983       24.1610015130        4.8636008531
  H        46.6628025151       22.2901368728        6.1719561790
  H        47.6297376690       23.5758488729        1.2461586975
  H        14.8720901287        8.5882196582        4.6085757922
  H        50.2870942826       22.7027441961       12.0601843798
  H        49.2691513636       24.5756360111       13.3602210678
  H        45.6103836967       24.1090803420       11.1461613026
  H        46.6524433593       22.2537283982        9.8319225662
  H        47.6077968943       23.5518643176       14.7968173884
  H        40.6305751263       17.0571995640       11.4131058331
  H        48.6870898760       14.0949919207        7.8000055339
  H        10.6812101891       12.4665797973       12.0931879173
  H        11.6894871007       10.5246703366       13.2969349112
  H        15.3935473312       11.1591057717       11.2057847477
  H        14.3650283927       13.0875256513        9.9904759564
  H        13.3758727639       11.6221711097       14.7531465446
  H        47.9301127770       14.2185901206        9.7107948398
  H        47.7799672304       14.3736000105        6.4953088903
  H        49.0826162991       18.5518501305       10.8670519136
  H        10.4159113301       14.1344027112        7.9988185969
  H        24.4759144733        3.0321006019        3.9087091484
  H        25.6061140052        4.8940495275        2.6766506968
  H        23.2214158095        7.7544296086        4.8285991782
  H        22.1104754700        5.8829103095        6.0629166940
  H        23.8013806283        5.7924994995        1.2428716372
  H        36.3800608444       32.1841014063        3.9596339859
  H        35.2589574085       30.3614161455        2.6762421866
  H        37.5237137437       27.4363442660        4.8710725111
  H        38.6246901980       29.2717779038        6.1636141273
  H        37.0214878937       29.4490862127        1.2534947099
  H        25.7007341552        8.6166148762        4.6400303580
  H        36.4476759910       32.2443139717       12.1016112028
  H        35.3255753744       30.4272846558       13.3898653580
  H        37.5055298357       27.4883897953       11.1275468198
  H        38.6021687615       29.3171963480        9.8260984370
  H        37.0300294392       29.4712369890       14.8053034628
  H        46.1092500800       26.5875317149       11.3855376171
  H        44.6682210227       35.1161292674        7.8139532325
  H        24.4499501500        3.0404853853       12.0731677432
  H        25.5889791655        4.8804076602       13.3166729008
  H        23.1774945651        7.7686640429       11.2338772364
  H        22.0506655257        5.9169379001        9.9896521205
  H        23.7981050718        5.7920208812       14.7938015101
  H        44.9536507213       34.3901376495        9.6949824926
  H        44.9016535483       34.2068201420        6.4905691523
  H        40.6653137244       33.2085183376       10.8527095452
  H        23.1503472531        1.9577871061        8.0041663923
  H        25.8234987018       19.6290244407        3.8844920881
  H        23.6457698678       19.6822661990        2.6726204635
  H        22.3559639598       16.2037899310        4.8484315377
  H        24.5396352242       16.1658774086        6.0613871762
  H        23.7216364191       17.6445241741        1.2441352289
  H        35.1563042330       15.4317058265        4.0081255170
  H        37.2763409269       15.3863901432        2.6914417916
  H        38.6907130287       18.8109833268        4.8766988570
  H        36.5649715222       18.8374504702        6.1949591570
  H        37.2215839790       17.3605095339        1.2472903844
  H        20.3586233953       17.9682700811        4.6678529226
  H        35.1324459578       15.4600487861       12.1189972381
  H        37.2705055893       15.3793224453       13.4013511263
  H        38.7416256378       18.7345839542       11.1457347109
  H        36.6016587450       18.7909970672        9.8537158198
  H        37.2300658665       17.3451249091       14.7978920227
  H        35.1180703809       26.6903744503       11.3792163548
  H        28.5166024367       21.0759250663        7.8991072183
  H        25.7689658132       19.6099527745       12.1873027774
  H        23.5827929855       19.6670639175       13.3970840111
  H        22.2896830751       16.1967255346       11.2099571104
  H        24.4744080109       16.1658377161        9.9907297010
  H        23.7000261626       17.6336858034       14.7943720580
  H        28.9855122332       21.7312417800        9.6839764595
  H        29.1566447313       21.7375284187        6.5353829610
  H        32.0760614298       18.6044590983       10.9879221010
  H        27.4031956758       19.0719459914        8.0757736507
  H        14.8501266152       19.6512856675       12.1366411232
  H        17.0130531290       19.6985731518       13.3792344272
  H        18.3029176824       16.1889025213       11.2540574018
  H        16.1360101364       16.1573913399       10.0109247357
  H        16.9204752507       17.7040666970       14.8461715444
  H        46.0893207082       15.4308313167       12.0574504158
  H        43.9627218453       15.3589550820       13.3594186191
  H        42.5369220936       18.7941095588       11.1982813817
  H        44.6641201108       18.8408012008        9.8854409280
  H        44.0149278751       17.3039256136       14.8202188502
  H        20.2910012576       17.9283499119       11.4199149088
  H        46.0436642790       15.3861636542        4.0330857806
  H        43.9144237032       15.3216289326        2.7354666426
  H        42.5228197228       18.7927073317        4.8603662826
  H        44.6581527154       18.8427727030        6.1599154421
  H        44.0061024348       17.2953208713        1.2695027877
  H        46.1990200922       26.6825134014        4.6233242136
  H        52.7411526730       21.0626750603        8.1946964473
  H        14.8818648232       19.6760755202        3.8990452155
  H        17.0826411897       19.7484582972        2.7194009544
  H        18.3332693606       16.2255690203        4.8456011697
  H        16.1348584008       16.1775213765        6.0354220386
  H        16.9412966092       17.7172276011        1.2935305540
  H        52.3225856926       21.6733266806        6.2942456714
  H        52.0134027495       21.7022502905        9.4956730787
  H        49.0674479030       18.6078435427        5.2041446324
  H        13.2473957078       19.0163978461        7.9771791879
  H        29.9411678397       12.5014492503       12.2624324744
  H        28.8884641959       10.5555301298       13.4206792550
  H        25.2660810649       11.1882326776       11.1901501485
  H        26.3401797129       13.1186342229       10.0186250194
  H        27.1650701614       11.6789378714       14.7910623092
  H        30.9889242315       22.7576693455       11.9982541889
  H        31.9931641623       24.6315038426       13.3093967723
  H        35.6728232853       24.1658432891       11.1310244492
  H        34.6489989507       22.2986729292        9.8173874245
  H        33.6822558996       23.5727561581       14.7405820059
  H        25.7342935112        8.5954213983       11.3947008899
  H        30.9563428351       22.6846485693        3.9058937305
  H        31.9751194152       24.5603034493        2.6105597884
  H        35.6149650431       24.1212363605        4.8605432780
  H        34.5748252167       22.2563751892        6.1620613385
  H        33.6729728420       23.5516501457        1.1925872569
  H        40.6001137265       17.0841300986        4.6540317461
  H        32.5105710373       14.1536845623        8.2612839250
  H        29.8886833661       12.4930238135        3.9212559445
  H        28.8454865404       10.5972547637        2.6753258465
  H        25.1755680828       11.2097113703        4.8320557041
  H        26.2377178670       13.0967698761        6.0834172190
  H        27.1444446378       11.6927106116        1.2405998878
  H        33.2950397219       14.1956626316        6.4400824457
  H        33.4028030670       14.3984868148        9.6129299590
  H        32.1340409816       18.5194594741        5.1699988572
  H        30.2155738192       14.1873947181        8.0841958234
  H        16.1185203289        2.9632989075       12.1299656228
  H        14.9533151535        4.8203601393       13.3226605884
  H        17.3657347562        7.6859783711       11.2097378294
  H        18.5144824579        5.8184309868       10.0099459842
  H        16.7535557117        5.7395904046       14.7714947229
  H        44.8281476915       32.1402580032       11.9769643982
  H        45.9374545684       30.3413899222       13.3063854888
  H        43.6825073446       27.3781549134       11.1523918268
  H        42.5997510548       29.1899842416        9.8098140532
  H        44.2304421192       29.4367802789       14.7688522963
  H        14.8509725315        8.5462533133       11.3633365629
  H        44.8999552205       32.2340214430        3.9318161980
  H        46.0247489369       30.4129589476        2.6522630727
  H        43.7634337331       27.4840600390        4.8453411161
  H        42.6457167029       29.3177429748        6.1244476349
  H        44.2685265888       29.4705258802        1.2181304793
  H        35.0847831814       26.6143907388        4.6183185687
  H        36.6049854710       35.1339437229        8.1807378928
  H        16.1437200737        3.0128832687        3.9038531165
  H        14.9741930394        4.8562868323        2.6881577653
  H        17.3959223456        7.7471567890        4.7553632585
  H        18.5429081121        5.8931670168        5.9829903697
  H        16.7647012981        5.7555137173        1.2192313456
  H        36.2781943197       34.4824385515        6.2730775931
  H        36.3804771520       34.2094333772        9.4999369185
  H        40.5803984280       33.2023826697        5.1533549081
  H        17.4707591484        1.9470498423        7.9740484650
  H        29.0037965261       19.4678579927       12.4746370739
  H        28.9067478686       18.8660681845        3.6789753051
  H        30.4778986397       15.6658012533        3.9029677742
  H        30.8475817776       15.5584742525       12.4631079156
  H        27.6746334822       17.8254368199       14.5807866628
  H        29.0712534422       15.5717316755       14.8244769756
  H        30.9415587327       19.7183691063        1.4986175639
  H        32.2381327017       16.0883187696        2.0834227666
  H        32.9694465535       17.5868420413       14.5500798373
  H        18.8535723835        0.8689811708       12.3353956439
  H        40.5279624654       35.2291488044        3.9521003488
  H        42.3241463688       34.4191905971        3.5904399854
  H        22.0877960775        0.6920071418       12.3517032062
  H        11.5969579805       18.7127837776       12.3823803604
  H        52.2649908649       18.4311232793        3.6775866865
  H        49.2546967215       16.4770404233        3.5847483357
  H        10.1499316098       15.7982848417       12.2929366169
  H        50.8500391002       17.6925769339        3.9542186983
  H        10.0458960890       17.3946100408       12.0519868422
  H        20.2148107581        0.0021709165       12.0420153749
  H        39.1834970174       36.1243321741        3.6865857730
 Ni        30.7795773917       17.7214064731        2.8320171172
 Ni        31.0675671796       16.4300334602       -0.0833041966
 Ni        29.6380193294       18.4259777223       -0.1650440406
 Ni        29.8863748043       17.5010093063       13.4016999665
  O        10.6499769138       14.3651210036        5.4858338700
  O        12.6132023825       14.6575290047        6.5839249233
  O        49.1477530637       16.8459643497        7.9897922793
  O        50.3500985951       20.9360210968        5.6482021709
  O        48.3484825483       20.5932491518        6.6660101279
  O        11.0515600200       17.0539126730        6.5006722254
  O        50.3208957064       20.8816483129       10.4068570022
  O        48.3466921369       20.5866888485        9.3271111632
  O        49.5435729871       18.2484079641       10.0682752100
  O        12.3589467448       18.6246130081        7.9997292073
  O        48.6932185421       14.1486089255        6.7512949424
  O         8.2098707751       14.2104419444        9.3225727317
  O        10.7353107151       14.5067581005       10.6643421013
  O        12.5717892366       14.5828469729        9.3285101067
  O        22.8444115867        2.0431875299        5.4871341038
  O        21.6048859479        3.5919399666        6.5900698852
  O        42.0581160839       34.1372741104        7.9789961974
  O        37.9816332062       33.1360364747        5.5720231097
  O        39.2178704404       31.5753419270        6.6661739957
  O        20.3082764845        1.0394156258        6.5020286616
  O        38.0248500830       33.1863562210       10.4148285733
  O        39.2190987460       31.5838236107        9.3263334847
  O        40.6523184685       33.7693433169       10.0601764955
  O        18.2554853004        1.3759344198        7.9967708893
  O        44.6221979069       35.1005818777        6.7587515170
  O        24.2054174104       -0.0000106650        9.3208187238
  O        22.7531288277        2.0577353402       10.5837549223
  O        21.6246142810        3.5961648876        9.3427822704
  O        27.5343568448       18.6856246181        5.4203765365
  O        26.7647178203       16.9335060991        6.6523403091
  O        30.6638823340       19.3984964223        8.0532674212
  O        33.5804828145       16.2790647073        5.6644553323
  O        34.2738743583       18.1660114887        6.7367887343
  O        29.5762277460       17.0556343446        6.5839217680
  O        33.5504271771       16.3421857943       10.4206575400
  O        34.2998599396       18.2383977209        9.4072676994
  O        31.6474285061       18.3176907409       10.1651422770
  O        30.3201068471       15.1531252357        8.0871875121
  O        28.5557102298       21.0273974972        6.8238016805
  O        28.5138229760       20.9562566133        9.3341964451
  O        27.4572822437       18.6809293899       10.6580482297
  O        26.6948808655       16.9295948579        9.4127033521
  O        13.1486129994       18.6930680214       10.5873883761
  O        13.9194207986       16.9163079657        9.4051103207
  O        50.5958612914       19.3501626179        8.0205595349
  O        47.6825549840       16.3271039763       10.4173046822
  O        46.9500290600       18.1755603447        9.3257354661
  O        11.0696007315       17.0156202960        9.4896625519
  O        47.6758637512       16.3358261417        5.6529580019
  O        46.9261208235       18.2358185236        6.6638207357
  O        49.5685163322       18.3177115270        5.9823838553
  O        10.3185814595       15.1002547897        7.9971444081
  O        52.6707406101       21.0278938571        9.2418327269
  O        12.1467988405       20.8911661282        6.6732527698
  O        13.1080062142       18.6136545945        5.3255681257
  O        13.9571858453       16.9870639489        6.6653669218
  O        29.9638528288       14.5062911724       10.7441663895
  O        28.0818205636       14.6568494971        9.4863626741
  O        32.0792052307       16.8636786226        8.0867925049
  O        30.9574581094       20.9603242051       10.3381168007
  O        32.9571609450       20.5945010361        9.3305927395
  O        29.5651292845       17.0825919117        9.5793091397
  O        30.9080863347       20.8779544494        5.5829008083
  O        32.8810608276       20.5851593833        6.6664074040
  O        31.6860691140       18.2492019785        5.9894377790
  O        28.2894389668       18.6748859303        8.0671307109
  O        32.4874544101       14.2158520791        9.3333957706
  O        32.4027756382       14.2142018842        6.8241100881
  O        29.9055464813       14.4470010543        5.4223793314
  O        28.0498156335       14.5837403866        6.7419571436
  O        17.8892273834        1.9666409207       10.6628368994
  O        18.9562085978        3.5271349580        9.4079811962
  O        39.1686633963       34.1387059439        7.9971669202
  O        43.2802026519       33.0589522957       10.3316685063
  O        42.0344791296       31.5064750642        9.2416052110
  O        20.3176986295        1.0366389253        9.4802497676
  O        43.2760901946       33.1825773656        5.5748837329
  O        42.0052767778       31.5840882070        6.5829552603
  O        40.5789005902       33.7748062953        5.9356696603
  O        22.3672429349        1.3845461753        7.9979814675
  O        36.6727178156       35.0998451740        9.2332750248
  O        16.4455522388        0.0640593599        6.6681480206
  O        17.9364421161        2.0432175979        5.3263950134
  O        18.9189500288        3.5930676426        6.6659409375
  O        29.7851502131       18.7551138160        4.0849570084
  O        29.7800565149       19.0443162243       12.0620407534
  O        31.1744689467       16.3293513336        4.0840430706
  O        31.2232890315       16.4099840280       12.1569146494
  O        31.8940219275       16.8523711079        1.5825650105
  O        29.9521221018       15.8099647713       14.4920479164
  O        32.5770981551       16.7005259747       14.4851567848
  O        30.3206908439       18.9708794958        1.4818457068
  O        28.4496176788       18.3891375571       14.4130788707
  O        39.4568091797       35.2436900470        4.0019548980
  O        19.1414685317        0.0045556535       11.9905585461
  O        41.9697082047       35.1729327924        4.0872358469
  O        21.6913446758       -0.0693524558       11.8960004184
  O        51.3650918023       18.6143242764        4.0054683737
  O        10.7511050994       18.7471699592       11.9049307955
  O        50.0792593755       16.4128006303        4.0918096541
  O         9.5241843514       16.4831488516       11.9911897781
 Zr         9.2968041928       16.0527959830        6.1824053157
 Zr        49.8362474327       16.0068583006        9.7465209304
 Zr        22.0731303112        0.0296192968        6.1892124447
 Zr        42.4609199965       35.1532566337        9.8010455291
 Zr        29.6158350253       19.0778536513        6.2611086757
 Zr        29.5713408445       19.1848966978        9.8866151872
 Zr        11.0379214772       19.0520638866        9.8277959427
 Zr        11.0437700773       19.1548825794        6.2512039164
 Zr        31.3355966844       16.1176587641        9.9077112482
 Zr        31.3963548831       16.0178878016        6.2909978064
 Zr        18.6011416041       -0.0013881750        9.7634338366
 Zr        18.5062826982       -0.0082890011        6.2136556709
 Zr        12.3020968575       16.3236535597        7.9903312586
 Zr        48.6159490871       18.8329303668        8.0105175279
 Zr        20.3148856756        2.4731387017        7.9907642491
 Zr        40.6433037850       32.6867711615        7.9780952736
 Zr        28.3493841190       16.3511088776        8.0786987438
 Zr        32.6169561348       18.8430629283        8.0479461035
  H        32.2030222618       16.6208214858       13.5412454269
