     560
 i =      160, E =     -4340.4590937221
  C        11.8586833043       14.0534079316        5.7414929191
  C        12.4560321038       12.8904720630        5.0232236918
  C        11.7042815433       12.1715799334        4.0815638574
  C        12.2805530989       11.1093018245        3.3892634797
  C        13.6211029481       10.7393501180        3.6169817195
  C        14.3543266088       11.4428899250        4.5904485064
  C        13.7815366654       12.5079264127        5.2819444228
  C        14.2605089893        9.6486218277        2.8435663307
  C        14.2554402983        9.6563683372        1.4218597213
  C        13.7422684763       10.7584766709        0.6679391392
  C        49.1267061135       21.2333639039        5.8797018312
  C        48.5498974424       22.4012862919        5.1527030972
  C        49.2998274900       23.0683983922        4.1714800568
  C        48.7328770659       24.1075163212        3.4382745532
  C        47.4024184024       24.5093315610        3.6670888245
  C        46.6716436503       23.8607536804        4.6809299676
  C        47.2340916405       22.8158621715        5.4102870911
  C        46.7721296244       25.5869532139        2.8697819456
  C        46.7610516845       25.5572432479        1.4480261019
  C        47.2609451390       24.4421201859        0.7045490238
  C        14.8592400503        8.5699726206        0.7085588944
  C        14.8914825172        8.5967640956        3.5201911597
  C        49.1130570989       21.2034539520       10.1452258262
  C        48.5276772877       22.3648244280       10.8723476396
  C        49.2666917506       23.0250685043       11.8657395452
  C        48.6904071308       24.0596149111       12.5972439901
  C        47.3602007627       24.4568485811       12.3586037929
  C        46.6400383631       23.8124760191       11.3345485682
  C        47.2135735533       22.7766047858       10.6027154368
  C        46.7217069569       25.5317446404       13.1496601325
  C        46.7333022921       25.5280214292       14.5713674353
  C        47.2486734518       24.4287997585       15.3277860743
  C        40.6153065805       17.1044032821       15.3128555879
  C        40.6325219140       17.1663131476       12.5022009882
  C        11.8828919686       14.0863694453       10.2855359865
  C        12.4718614694       12.9104109654       10.9896054958
  C        11.7142313453       12.1775145377       11.9158888472
  C        12.2805446435       11.0949014566       12.5842465224
  C        13.6192271278       10.7207041493       12.3522975292
  C        14.3572601072       11.4359225104       11.3912640106
  C        13.7921231266       12.5172575444       10.7186030409
  C        14.2526148170        9.6238789371       13.1227549758
  C        14.2512463973        9.6438514001       14.5445978101
  C        13.7415402965       10.7528655755       15.2916841847
  C        22.5067154229        3.2432731033        5.7483285219
  C        23.2101453902        4.3466409942        5.0366699433
  C        24.2074417864        4.0644408667        4.0915723681
  C        24.8282864328        5.1020521653        3.4015542444
  C        24.4664172268        6.4433453129        3.6361610888
  C        23.4939648657        6.7171502648        4.6151410380
  C        22.8693381772        5.6815083161        5.3044818222
  C        25.0751006426        7.5483178410        2.8621853337
  C        25.0686081814        7.5374597264        1.4410204418
  C        24.3763913343        6.5360667751        0.6891952197
  C        38.3022324797       31.9279799430        5.8481044031
  C        37.5715876183       30.8375521499        5.1381326643
  C        36.6077796023       31.1408396713        4.1640631617
  C        35.9876752243       30.1208380201        3.4471182189
  C        36.3158817697       28.7708703542        3.6813064017
  C        37.2510592984       28.4749978457        4.6912079130
  C        37.8749879336       29.4938090155        5.4073450022
  C        35.7078293442       27.6796427231        2.8853270743
  C        35.7303877287       27.6962980217        1.4634059028
  C        36.4354626502       28.6979419317        0.7246249865
  C        25.7020182089        8.6057530190        0.7277017267
  C        25.6583236489        8.6268100550        3.5384265262
  C        38.3264106502       31.9604255428       10.1569229525
  C        37.5996102597       30.8875337114       10.8980811612
  C        36.6685373098       31.1982483112       11.9014386381
  C        36.0513596555       30.1819993473       12.6291471537
  C        36.3494035330       28.8272925430       12.3785082326
  C        37.2585608212       28.5265969314       11.3452975228
  C        37.8780052920       29.5395412960       10.6187808686
  C        35.7339087460       27.7299348487       13.1627915140
  C        35.7434843195       27.7220125149       14.5854413402
  C        36.4415339598       28.7103477170       15.3479071079
  C        46.1352275260       26.6206325181       15.2814923499
  C        46.0878486572       26.5801718660       12.4736143584
  C        22.4658567265        3.2546926068       10.2525722540
  C        23.1729438253        4.3607194048       10.9647144254
  C        24.1835676063        4.0697533238       11.8948612620
  C        24.8224979610        5.0971451439       12.5842145710
  C        24.4701562559        6.4438404543       12.3659847595
  C        23.4843005000        6.7282124763       11.4025191597
  C        22.8411323393        5.7011204449       10.7128501929
  C        25.1035236990        7.5379439119       13.1426893377
  C        25.0839671134        7.5313827865       14.5646744502
  C        24.3811118241        6.5349617079       15.3128272760
  C        26.5637856231       17.8298019921        5.7878506653
  C        25.2618866614       17.8939302236        5.0642720362
  C        25.0079659572       18.9107980000        4.1307056394
  C        23.8009086855       18.9416446915        3.4364942593
  C        22.8150424743       17.9590364521        3.6555965436
  C        23.0634439323       16.9660023865        4.6216614899
  C        24.2719049475       16.9300710001        5.3140551791
  C        21.5496526230       17.9538913138        2.8824407370
  C        21.5583380407       17.9511431752        1.4603109660
  C        22.7688691007       17.8461619864        0.7049049677
  C        34.4294934567       17.2017017179        5.9227693965
  C        35.7262239956       17.1323825149        5.1914201795
  C        35.9104538424       16.1733309654        4.1825991697
  C        37.0892377005       16.1498179614        3.4419773649
  C        38.1144496150       17.0850612240        3.6859925855
  C        37.9320855571       18.0221099110        4.7220268001
  C        36.7520422440       18.0509736103        5.4619249087
  C        39.3653774151       17.0916433413        2.8917654680
  C        39.3588951365       17.1068515443        1.4687291072
  C        38.1511222545       17.2231849284        0.7105970426
  C        20.3144670213       17.9684273703        0.7478610281
  C        20.3235424571       17.9427793229        3.5603566378
  C        34.4416934240       17.2101245851       10.1811274206
  C        35.7499978095       17.1457368962       10.8902442466
  C        35.9936581305       16.1369262521       11.8364920639
  C        37.1769804017       16.1299531568       12.5691662486
  C        38.1533597399       17.1255044674       12.3706146343
  C        37.9201822924       18.1073775467       11.3888998398
  C        36.7308618393       18.1243128339       10.6636085074
  C        39.4017496710       17.1429172528       13.1677375907
  C        39.3777676340       17.1314040632       14.5894925676
  C        38.1598794388       17.2313318311       15.3332967685
  C        35.1091177685       26.6447161145       15.2902752279
  C        35.1391563128       26.6608046869       12.4808212770
  C        26.5656533711       17.8276771296       10.3227340916
  C        25.2509848182       17.8854194132       11.0211852282
  C        24.9739939527       18.9201821203       11.9275685972
  C        23.7570054095       18.9525836650       12.6018712192
  C        22.7883809571       17.9521619494       12.3899716362
  C        23.0573884474       16.9432276728       11.4475566285
  C        24.2756924777       16.9072416872       10.7728549843
  C        21.5245741825       17.9423200606       13.1620797286
  C        21.5449261933       17.9450226094       14.5832146542
  C        22.7624558992       17.8438211195       15.3283484025
  C        14.0457649609       17.8321663234       10.2841071476
  C        15.3520537637       17.8979605881       11.0010892285
  C        15.6100894166       18.9128516595       11.9353886467
  C        16.8205513282       18.9412494465       12.6240039981
  C        17.8043584033       17.9575477182       12.3993898699
  C        17.5521085665       16.9679798237       11.4310335324
  C        16.3411545655       16.9352200126       10.7435601508
  C        19.0707250779       17.9461365871       13.1695126317
  C        19.0635869886       17.9481192844       14.5911229396
  C        17.8530545735       17.8463818664       15.3463378522
  C        46.8032295039       17.2190721939       10.1586043396
  C        45.5104902587       17.1586501178       10.9022632606
  C        45.2967023353       16.1769642524       11.8823120597
  C        44.1128445308       16.1606636988       12.6156762421
  C        43.1118689157       17.1267233598       12.3925991671
  C        43.3229094657       18.0881785332       11.3856847823
  C        44.5071346713       18.1077310037       10.6526794024
  C        41.8572355358       17.1385651579       13.1805903195
  C        41.8618570415       17.1244283046       14.6029942586
  C        43.0711322033       17.2133097925       15.3619834243
  C        20.3073503994       17.9643493027       15.3035390916
  C        20.2959883514       17.9229107118       12.4909509486
  C        46.7830876151       17.2310698711        5.8871894266
  C        45.4792415682       17.1224674293        5.1693990593
  C        45.2621411660       16.1213334877        4.2101259061
  C        44.0737075941       16.0888141744        3.4837627128
  C        43.0707480661       17.0542670000        3.6986349230
  C        43.2787831763       18.0260874145        4.6955496961
  C        44.4684491897       18.0649539939        5.4170008130
  C        41.8221690434       17.0703958132        2.9021989803
  C        41.8441387628       17.0883178544        1.4808174671
  C        43.0624691421       17.1946807120        0.7387441532
  C        46.1530341870       26.6371000051        0.7262501301
  C        46.1622635959       26.6561402965        3.5358829675
  C        14.0408153431       17.8291313790        5.7061111216
  C        15.3550913374       17.9006931677        5.0064557783
  C        15.6234918123       18.9238524671        4.0851065354
  C        16.8474855263       18.9638744418        3.4223795861
  C        17.8284278922       17.9798108335        3.6562977699
  C        17.5655995544       16.9826041810        4.6127906106
  C        16.3437443509       16.9422932174        5.2795360504
  C        19.0949052740       17.9655795185        2.8886535933
  C        19.0764158397       17.9571628480        1.4675851754
  C        17.8593732939       17.8503734444        0.7225241121
  C        28.8053885752       14.0837570200       10.3568460386
  C        28.2122003232       12.9043502263       11.0436349505
  C        28.9420227702       12.1847859972       12.0014272178
  C        28.3537261605       11.1081586624       12.6605548761
  C        27.0238110892       10.7295209110       12.3865732642
  C        26.3178389480       11.4299031905       11.3914409822
  C        26.9024508239       12.5061859592       10.7304644576
  C        26.3591153082        9.6485028718       13.1495634003
  C        26.3353550000        9.6751510793       14.5705766696
  C        26.8338853930       10.7874641034       15.3202788805
  C        32.1708141972       21.2529377719       10.1008620950
  C        32.7538563259       22.4193358318       10.8237687299
  C        32.0027500045       23.0729571274       11.8139319982
  C        32.5659398775       24.1073257022       12.5561610849
  C        33.8950147982       24.5174513465       12.3316489894
  C        34.6274065690       23.8803443235       11.3109035034
  C        34.0685560332       22.8402317491       10.5706537296
  C        34.5198219039       25.5916433562       13.1395064631
  C        34.5109338006       25.5633163559       14.5623411208
  C        33.9977224401       24.4516693383       15.3028948663
  C        25.7156996242        8.5986033938       15.2835469803
  C        25.7260750871        8.5982129390       12.4716956078
  C        32.1152212063       21.2087083062        5.8916276252
  C        32.6972205385       22.3719427417        5.1628158634
  C        31.9506837983       23.0318519865        4.1736296185
  C        32.5233080368       24.0614183135        3.4297046679
  C        33.8542372142       24.4642177392        3.6572594273
  C        34.5821116632       23.8185938881        4.6761861305
  C        34.0168208722       22.7803204384        5.4128188211
  C        34.4882657895       25.5462587988        2.8658783773
  C        34.4938117825       25.5411091236        1.4427639834
  C        33.9880308222       24.4415804761        0.6802200467
  C        40.6055150960       17.0885874626        0.7583709703
  C        40.5915523122       17.0895939852        3.5681704539
  C        28.6635276395       14.0636320715        5.8214174402
  C        28.0636298668       12.9147294929        5.0852245637
  C        28.8198393486       12.2040200389        4.1402512861
  C        28.2486205712       11.1498726108        3.4329091803
  C        26.9067942516       10.7784083674        3.6484350776
  C        26.1675793713       11.4734162298        4.6239370513
  C        26.7364875635       12.5301241327        5.3318515344
  C        26.2791950730        9.6870107069        2.8669892821
  C        26.2957165525        9.6951373247        1.4455678008
  C        26.8129260304       10.7980376211        0.6961735364
  C        18.1353854800        3.1809449141       10.3171970828
  C        17.4058097382        4.2780528715       11.0157332218
  C        16.3897465491        3.9994773575       11.9428078369
  C        15.7417245668        5.0392861604       12.6062772734
  C        16.0937157992        6.3830477041       12.3669831567
  C        17.0834581693        6.6528351664       11.4036689070
  C        17.7328303472        5.6156338486       10.7386461456
  C        15.4691230383        7.4905963990       13.1300490279
  C        15.4843109461        7.4898742152       14.5517671669
  C        16.1859289749        6.4962956763       15.3049204868
  C        42.9457169835       31.8595446784       10.0728966343
  C        43.6461373193       30.7717909021       10.8168214408
  C        44.5916126505       31.0931302848       11.8029185671
  C        45.1973578760       30.0876050795       12.5505954196
  C        44.8710001779       28.7345468286       12.3356675729
  C        43.9452670347       28.4201796091       11.3223841346
  C        43.3364118012       29.4253145734       10.5743632552
  C        45.4885081703       27.6552198764       13.1388750464
  C        45.4925341370       27.6807701224       14.5605713458
  C        44.8054388239       28.6888219146       15.3071814851
  C        14.8553149721        8.5623578934       15.2641230706
  C        14.8738649593        8.5623632102       12.4514619894
  C        42.9463777532       31.9616735646        5.8090484446
  C        43.6916317947       30.8854682664        5.0955229375
  C        44.6561808963       31.1913696365        4.1231988452
  C        45.2776748201       30.1717772892        3.4054280946
  C        44.9538461616       28.8214881027        3.6430693165
  C        44.0204124116       28.5238145510        4.6538795410
  C        43.3922145264       29.5405934787        5.3660979801
  C        45.5628616785       27.7240654554        2.8578274651
  C        45.5330671666       27.7172644367        1.4365336886
  C        44.8267332948       28.7074789102        0.6835738992
  C        35.1016010942       26.6323639020        0.7363701653
  C        35.1061322279       26.6028773773        3.5468781074
  C        18.1484450143        3.2468783972        5.7066593115
  C        17.4298487627        4.3436604033        4.9972604565
  C        16.4143834287        4.0523443301        4.0739923922
  C        15.7659907297        5.0829289412        3.3986094043
  C        16.1208737429        6.4281597125        3.6210000852
  C        17.1126360212        6.7116137046        4.5778351924
  C        17.7603605754        5.6827361967        5.2576228860
  C        15.4901640682        7.5237672291        2.8485748920
  C        15.4956561067        7.5069749029        1.4274346810
  C        16.1923004236        6.5051920767        0.6807347755
  H        10.6721770576       12.4657693278        3.9045317885
  H        11.6942190513       10.5508225311        2.6627636972
  H        15.3913458598       11.1682357662        4.7721814193
  H        14.3510967797       13.0710391670        6.0173982928
  H        13.3754628796       11.6307141339        1.2012001736
  H        50.3224726574       22.7482227787        3.9866093336
  H        49.3193014314       24.6226266477        2.6805414255
  H        45.6422788448       24.1618199750        4.8643218793
  H        46.6632225191       22.2908675471        6.1726506109
  H        47.6295453407       23.5757696624        1.2462365419
  H        14.8721822092        8.5881708060        4.6085069616
  H        50.2865761917       22.7018807889       12.0609581003
  H        49.2686909563       24.5747545417       13.3610454523
  H        45.6108698199       24.1102447098       11.1450449633
  H        46.6529956175       22.2549235525        9.8306535460
  H        47.6075072495       23.5516777602       14.7969327024
  H        40.6381360086       17.1487771462       11.4139774461
  H        48.6870738693       14.0951371520        7.7999907794
  H        10.6808729334       12.4668934281       12.0933989831
  H        11.6886772096       10.5247194815       13.2970465964
  H        15.3926066444       11.1577571665       11.2052521512
  H        14.3646303135       13.0863538506        9.9899892675
  H        13.3748415389       11.6215391587       14.7530613395
  H        47.9301707742       14.2184962598        9.7110767706
  H        47.7800026180       14.3739847719        6.4953530165
  H        49.0836401818       18.5524174712       10.8672778390
  H        10.4161377477       14.1343052411        7.9988696498
  H        24.4747885639        3.0258891168        3.9098205929
  H        25.6040179151        4.8840187149        2.6707443486
  H        23.2068564855        7.7500146628        4.8009705899
  H        22.0979170202        5.8826165383        6.0437734178
  H        23.8091433819        5.7801977596        1.2244776256
  H        36.3686244712       32.1839536556        3.9708975096
  H        35.2397549738       30.3612486733        2.6946873798
  H        37.5134778477       27.4360695831        4.8800636947
  H        38.6217350047       29.2716587833        6.1660319324
  H        37.0041413860       29.4458073068        1.2695710529
  H        25.6761036709        8.6138789163        4.6266834434
  H        36.4486063810       32.2430754382       12.1089395471
  H        35.3245163782       30.4312506270       13.3991375690
  H        37.5025449388       27.4856738366       11.1433701145
  H        38.6016670610       29.3097006730        9.8404305372
  H        37.0160006214       29.4672805959       14.8217556667
  H        46.1094541573       26.5877354320       11.3855841455
  H        44.6683086500       35.1162606953        7.8141191025
  H        24.4574951562        3.0301655584       12.0595876431
  H        25.6082941532        4.8658629152       13.3001885940
  H        23.2020737278        7.7640973790       11.2257033508
  H        22.0634269428        5.9168176684        9.9838591744
  H        23.8168884712        5.7786803521       14.7750142511
  H        44.9538599478       34.3901286042        9.6949042191
  H        44.9020674323       34.2069334016        6.4907383911
  H        40.6653998133       33.2088928093       10.8530654620
  H        23.1501794444        1.9581045771        8.0030263711
  H        25.7665922049       19.6719838569        3.9640461904
  H        23.6066383311       19.7344069865        2.7172920951
  H        22.3111880716       16.1997637201        4.7973473739
  H        24.4782578079       16.1500423001        6.0431457314
  H        23.7093474034       17.7339387679        1.2366081331
  H        35.1085084287       15.4662714180        3.9819997664
  H        37.2290353607       15.3986673323        2.6677127506
  H        38.7140128571       18.7534104700        4.9159123825
  H        36.5961424800       18.7937341315        6.2409178071
  H        37.2098577637       17.3380412611        1.2405605748
  H        20.3262243035       17.9682236693        4.6486017773
  H        35.2397224171       15.3694343848       11.9953742418
  H        37.3595699388       15.3474538897       13.3024981324
  H        38.6675331324       18.8818479232       11.2289881014
  H        36.5309579831       18.9026459396        9.9307816637
  H        37.2252925208       17.3503074492       14.7924128693
  H        35.1123605074       26.6869542249       11.3930660528
  H        28.4979334998       21.1073085575        7.8914988078
  H        25.7238925089       19.6912942590       12.0875744187
  H        23.5422505122       19.7559962112       13.3032003672
  H        22.3158150914       16.1649863421       11.2795244979
  H        24.5014795979       16.1157702785       10.0622333211
  H        23.6979781996       17.7305443251       14.7883640349
  H        28.9416531511       21.7352162270        9.7293493947
  H        29.1710533256       21.7211223979        6.5235734287
  H        32.3566673108       18.7538964757       10.8147445714
  H        27.3510669001       19.0780200030        8.0838703591
  H        14.8512573891       19.6730078908       12.1066652977
  H        17.0191561337       19.7324404068       13.3437747170
  H        18.3033443695       16.2019389601       11.2501300067
  H        16.1319765237       16.1585562079       10.0118394373
  H        16.9131653283       17.7309832804       14.8145374905
  H        46.0753924698       15.4396090578       12.0630069237
  H        43.9489694475       15.3909482924       13.3666880063
  H        42.5596879877       18.8430344515       11.2080220973
  H        44.6851729693       18.8646670437        9.8923908458
  H        44.0126129458       17.3303465238       14.8329757207
  H        20.2935059184       17.9428109776       11.4026097941
  H        46.0405427864       15.3821380697        4.0349714877
  H        43.9101996808       15.3109337151        2.7410235608
  H        42.5108249054       18.7770990637        4.8689153155
  H        44.6481182427       18.8345869049        6.1637290238
  H        43.9974824554       17.2962411565        1.2821111425
  H        46.1992700573       26.6828304989        4.6233180478
  H        52.7412889802       21.0627073947        8.1946466033
  H        14.8635960898       19.6814463396        3.9069765545
  H        17.0576949892       19.7606272492        2.7121243894
  H        18.3156410927       16.2164968915        4.7981511459
  H        16.1240856927       16.1616444217        6.0037950455
  H        16.9242077144       17.7380114311        1.2628869703
  H        52.3226167317       21.6736773797        6.2945607528
  H        52.0136272758       21.7026409497        9.4954710378
  H        49.0675258513       18.6075514449        5.2038019457
  H        13.2474585748       19.0163032886        7.9759920383
  H        29.9624658036       12.4915460437       12.2206699135
  H        28.9194262799       10.5497206972       13.4031645137
  H        25.2903276329       11.1467082958       11.1728783320
  H        26.3537205614       13.0695131473        9.9797575583
  H        27.2063438752       11.6553342515       14.7842378766
  H        30.9843218319       22.7401041081       12.0010523531
  H        31.9770207034       24.6114231069       13.3192816589
  H        35.6561098796       24.1854805553       11.1304912203
  H        34.6438526901       22.3249428045        9.8048954719
  H        33.6354306187       23.5838119002       14.7592526408
  H        25.7624549719        8.5798006802       11.3838797284
  H        30.9292163383       22.7080312844        3.9862686856
  H        31.9385418308       24.5691186849        2.6657057965
  H        35.6124320090       24.1170446514        4.8584091843
  H        34.5893155130       22.2572056312        6.1752896602
  H        33.6177352730       23.5663917066        1.2067908980
  H        40.5868101916       17.0506071025        4.6558189816
  H        32.5259826481       14.1362543806        8.1826019109
  H        29.8570234594       12.4880556004        3.9785116637
  H        28.8407535268       10.5961157339        2.7075993359
  H        25.1293974563       11.1970183105        4.7961133575
  H        26.1627643312       13.0845844429        6.0707708074
  H        27.1682766234       11.6740010677        1.2311015033
  H        33.2778393819       14.1974260270        6.3257319663
  H        33.4109171899       14.3560066883        9.5455474702
  H        32.3319576474       18.6969284734        5.2280103504
  H        30.1792909520       14.1409016302        8.0710160706
  H        16.1176962343        2.9629224666       12.1289168223
  H        14.9520461317        4.8197368129       13.3216323573
  H        17.3660611422        7.6857451210       11.2109739011
  H        18.5152202462        5.8185014771       10.0112299879
  H        16.7525150916        5.7390050067       14.7713796528
  H        44.8278501830       32.1402285192       11.9770944684
  H        45.9371927951       30.3413936081       13.3065621157
  H        43.6826883684       27.3780935965       11.1522060401
  H        42.5998851484       29.1900338723        9.8095969990
  H        44.2301910434       29.4366439998       14.7688377009
  H        14.8503134897        8.5456868712       11.3632356682
  H        44.8997039845       32.2340662861        3.9317759790
  H        46.0245649366       30.4130426610        2.6521828429
  H        43.7635028358       27.4840747646        4.8454351390
  H        42.6457648095       29.3178570244        6.1246061679
  H        44.2682901887       29.4704169759        1.2181559886
  H        35.0716647466       26.6129259748        4.6346807648
  H        36.6052801349       35.1338638105        8.1807202557
  H        16.1431533066        3.0127640309        3.9045406702
  H        14.9734382909        4.8560429726        2.6887945745
  H        17.3964410959        7.7470643943        4.7543632876
  H        18.5434993530        5.8932705790        5.9820870508
  H        16.7639467820        5.7550886362        1.2191390237
  H        36.2788175176       34.4822419803        6.2731181184
  H        36.3811101033       34.2090636993        9.4997708896
  H        40.5802329158       33.2028498767        5.1536870885
  H        17.4708899947        1.9472537319        7.9741172339
  H        28.7704754978       19.1345879640       12.3818778903
  H        28.7864367778       19.1330703447        3.6691337514
  H        30.8809491266       15.2908150343        3.7202964042
  H        32.4809578590       16.2512605959       12.3676299387
  H        18.8538598554        0.8690700067       12.3352584909
  H        40.5282603434       35.2288383939        3.9520289567
  H        42.3243486713       34.4193698864        3.5899751600
  H        22.0874403478        0.6921665395       12.3517766428
  H        11.5966361618       18.7127662544       12.3826951778
  H        52.2647811649       18.4314945232        3.6772924769
  H        49.2553127641       16.4761292953        3.5839802281
  H        10.1503068806       15.7982318100       12.2925904554
  H        50.8500003594       17.6926618366        3.9539057121
  H        10.0461803996       17.3947401718       12.0519056554
  H        20.2153120176        0.0021976628       12.0419291068
  H        39.1838517055       36.1244141883        3.6863840545
 Ni        30.5586777344       17.5991469893        3.9963856834
 Ni        30.6476077205       17.7396584720       12.1591099145
  O        10.6498206099       14.3651897507        5.4858509837
  O        12.6130753012       14.6574246607        6.5838435552
  O        49.1476460188       16.8458502051        7.9896522632
  O        50.3501099644       20.9361343863        5.6481240606
  O        48.3484621135       20.5932303123        6.6658901523
  O        11.0513067667       17.0538735067        6.5006838585
  O        50.3207443960       20.8816328318       10.4068937417
  O        48.3466422706       20.5866581281        9.3269986608
  O        49.5436799193       18.2483463653       10.0682194853
  O        12.3589758052       18.6246602240        7.9996472118
  O        48.6931760124       14.1486812316        6.7512874135
  O         8.2098023304       14.2105146480        9.3226245488
  O        10.7352497611       14.5067960095       10.6643059248
  O        12.5717394528       14.5827452746        9.3285785919
  O        22.8441725938        2.0422439811        5.4873827141
  O        21.6049712594        3.5919245687        6.5896963344
  O        42.0580742130       34.1372647898        7.9791024402
  O        37.9816143273       33.1363761400        5.5719525870
  O        39.2179314160       31.5757099957        6.6660890146
  O        20.3084028767        1.0397152795        6.5020923268
  O        38.0240918059       33.1847270176       10.4157648866
  O        39.2178347874       31.5825675412        9.3277715454
  O        40.6522733020       33.7693357259       10.0602736016
  O        18.2556371323        1.3761794839        7.9967959426
  O        44.6222346195       35.1005754687        6.7588483888
  O        24.2055083112       -0.0000948571        9.3207482716
  O        22.7531034622        2.0565542640       10.5829556050
  O        21.6245572952        3.5957096324        9.3423313353
  O        27.4614930198       18.6943173342        5.4872456174
  O        26.6942400375       16.9194020207        6.6706584028
  O        30.6947998683       19.3459817552        8.0095474126
  O        33.5518083213       16.3232702933        5.6678797090
  O        34.2661374654       18.1810439201        6.7406059852
  O        29.5717393228       17.0672700551        6.5940843098
  O        33.5962319994       16.2755707713       10.4038003004
  O        34.2307922451       18.2316054057        9.4338530699
  O        31.6329109043       18.3108301956       10.3377769710
  O        30.2936010481       15.1051838265        8.0732950491
  O        28.5437767745       21.0372350958        6.8255734722
  O        28.5072658536       20.9637876801        9.3271604147
  O        27.4577991627       18.6791001664       10.6577099720
  O        26.6929935325       16.9294575706        9.4153914359
  O        13.1466686640       18.6937284989       10.5861719654
  O        13.9182496757       16.9160789369        9.4041336144
  O        50.5958997458       19.3502508597        8.0204262304
  O        47.6813721363       16.3276032410       10.4179076417
  O        46.9515562128       18.1761015454        9.3247761819
  O        11.0692942107       17.0156908215        9.4895314524
  O        47.6745872785       16.3359457493        5.6525066152
  O        46.9243682650       18.2358194253        6.6627072872
  O        49.5685778684       18.3177048572        5.9821560612
  O        10.3186703299       15.1001462148        7.9970891681
  O        52.6707119197       21.0279900596        9.2418047756
  O        12.1468223138       20.8913813317        6.6732945298
  O        13.1050340928       18.6142994384        5.3261622996
  O        13.9557191659       16.9867776967        6.6649971960
  O        29.9961558257       14.4361176548       10.6622140610
  O        28.0720040200       14.6614824788        9.4845987946
  O        32.0837066771       16.8806614172        8.0711408679
  O        30.9565989764       20.9601615158       10.3259671063
  O        32.9564887005       20.5859667051        9.3280774045
  O        29.5779303304       17.0815919699        9.5620104407
  O        30.8770949456       20.9584922872        5.7438707564
  O        32.9245205245       20.4954583481        6.5895542386
  O        31.5947882649       18.2354847037        5.6651269712
  O        28.2370136774       18.6807716029        8.0672247084
  O        32.4948152970       14.2064362351        9.2502845099
  O        32.4031605132       14.2034739065        6.7494563736
  O        29.8373273100       14.4382745252        5.4884713942
  O        27.9601558988       14.5892326113        6.7532014005
  O        17.8892343976        1.9665368191       10.6628048447
  O        18.9561629149        3.5271768648        9.4080513324
  O        39.1684639890       34.1386194246        7.9972639847
  O        43.2802047763       33.0588295103       10.3317258613
  O        42.0343469670       31.5064140548        9.2416414975
  O        20.3175089105        1.0365420812        9.4801169752
  O        43.2760973096       33.1825196678        5.5748797866
  O        42.0052150056       31.5841163468        6.5830366387
  O        40.5790713627       33.7751798132        5.9360666584
  O        22.3672761500        1.3845326416        7.9980012050
  O        36.6728259924       35.0997273927        9.2333555361
  O        16.4456622512        0.0641295452        6.6682336314
  O        17.9364122288        2.0432023748        5.3264326782
  O        18.9189309316        3.5931473162        6.6658635299
  O        29.6607955609       19.2580914105        4.0778374678
  O        29.6506782695       19.2902969702       11.9952281212
  O        31.4732564665       15.9745283391        4.0811537159
  O        31.5646958217       16.1170199599       12.0670703296
  O        39.4568579337       35.2437674446        4.0020092348
  O        19.1417064435        0.0045867311       11.9905107749
  O        41.9694314739       35.1726172798        4.0871480811
  O        21.6912743698       -0.0693791191       11.8961026641
  O        51.3648361950       18.6143645249        4.0052422570
  O        10.7509091597       18.7472286001       11.9050323885
  O        50.0794915526       16.4127246272        4.0917245785
  O         9.5244187396       16.4831276733       11.9911529730
 Zr         9.2973818478       16.0528110549        6.1822635852
 Zr        49.8367957343       16.0068490968        9.7464799439
 Zr        22.0734137491        0.0301869786        6.1891287918
 Zr        42.4610644029       35.1539269103        9.8011740414
 Zr        29.5423222550       19.1039336958        6.2506375494
 Zr        29.5442389723       19.2019754136        9.8179087590
 Zr        11.0380690352       19.0521447600        9.8278066915
 Zr        11.0440537221       19.1549874609        6.2509466671
 Zr        31.3327608069       16.0433003762        9.8778119939
 Zr        31.3608852148       15.9630484576        6.2688885079
 Zr        18.6013640994       -0.0012206666        9.7635794670
 Zr        18.5067686727       -0.0074524939        6.2136992881
 Zr        12.3021080059       16.3232180481        7.9904866474
 Zr        48.6168019925       18.8330502272        8.0097879138
 Zr        20.3153619268        2.4739709463        7.9907922534
 Zr        40.6432928975       32.6874121952        7.9784710565
 Zr        28.3224749368       16.3345560354        8.0758664799
 Zr        32.6376457323       18.8316150961        8.0384856574
  H        29.7096603054       17.1181031623        2.9361111529
  H        29.9036318642       17.3140153379       13.3078447554
