     571
 i =      156, E =     -4761.5783259080
  C        11.8588265209       14.0535691164        5.7415392487
  C        12.4564196381       12.8906936412        5.0231437997
  C        11.7045655552       12.1714049078        4.0819004955
  C        12.2809952088       11.1092312669        3.3895422930
  C        13.6217364712       10.7398706897        3.6169296303
  C        14.3551434947       11.4439341503        4.5898322367
  C        13.7822143140       12.5089025048        5.2813241422
  C        14.2612627398        9.6491617093        2.8435894010
  C        14.2565726355        9.6570369385        1.4218986062
  C        13.7434362435       10.7591980298        0.6680295857
  C        49.1269515798       21.2331786839        5.8797040805
  C        48.5502002062       22.4012143314        5.1525990415
  C        49.3002592541       23.0686210248        4.1716971719
  C        48.7333267214       24.1077893173        3.4385093312
  C        47.4027417769       24.5092833168        3.6670726833
  C        46.6717254139       23.8603312828        4.6804730433
  C        47.2342090415       22.8154118524        5.4097891276
  C        46.7724936414       25.5870099118        2.8698345854
  C        46.7613534341       25.5573853243        1.4480755404
  C        47.2612932788       24.4422823857        0.7046026582
  C        14.8604792383        8.5706772952        0.7086535185
  C        14.8919483954        8.5971953108        3.5202673415
  C        49.1133549023       21.2034248770       10.1453653226
  C        48.5279063019       22.3647723572       10.8726637218
  C        49.2671341527       23.0254742346       11.8655656177
  C        48.6908092680       24.0600547941       12.5970153226
  C        47.3603858846       24.4567568078       12.3587940577
  C        46.6399138722       23.8118050115       11.3353530292
  C        47.2134821312       22.7758771736       10.6036037928
  C        46.7219531146       25.5318002580       13.1497385293
  C        46.7335618816       25.5281628295       14.5714423134
  C        47.2489997979       24.4289608809       15.3278426708
  C        40.6348221001       17.1491336387       15.3259634180
  C        40.6553739339       17.1864515069       12.5171565378
  C        11.8830735574       14.0866372380       10.2854925190
  C        12.4725426685       12.9109389057       10.9898817789
  C        11.7149113800       12.1773851306       11.9155986373
  C        12.2815833307       11.0949581200       12.5840007227
  C        13.6205863255       10.7216976328       12.3525626311
  C        14.3587601380       11.4377475187       11.3923000289
  C        13.7932578693       12.5188953126       10.7196218003
  C        14.2541614673        9.6248480139       13.1228800079
  C        14.2528346717        9.6447533429       14.5447157229
  C        13.7429467035       10.7537039454       15.2917759971
  C        22.5106084518        3.2438171644        5.7529243459
  C        23.2230848237        4.3491301119        5.0520634774
  C        24.2190756379        4.0691508341        4.1050054128
  C        24.8443796656        5.1089696884        3.4221176729
  C        24.4889320584        6.4502806242        3.6664810645
  C        23.5209525350        6.7217920071        4.6504256797
  C        22.8910466147        5.6838133037        5.3317190515
  C        25.0936450753        7.5567479833        2.8909612424
  C        25.0681006063        7.5488896658        1.4695231695
  C        24.3666167891        6.5495252650        0.7227281412
  C        38.3030890374       31.9301081791        5.8492188851
  C        37.5744517733       30.8403477475        5.1395096891
  C        36.6146349019       31.1434373767        4.1618720219
  C        35.9990702506       30.1224650704        3.4432602723
  C        36.3288642872       28.7739030956        3.6812758992
  C        37.2589639446       28.4781568998        4.6954029682
  C        37.8786872238       29.4978441590        5.4126930974
  C        35.7275413586       27.6818565621        2.8842298436
  C        35.7584378924       27.6971275864        1.4630627150
  C        36.4648269363       28.6992723699        0.7259328034
  C        25.6920381499        8.6185240980        0.7502624933
  C        25.6878160385        8.6327828333        3.5626529736
  C        38.3290841672       31.9624408740       10.1560034649
  C        37.6081512861       30.8889271789       10.8978069034
  C        36.6798401869       31.1970126545       11.9039304779
  C        36.0709597532       30.1779365114       12.6335898796
  C        36.3764386603       28.8257484346       12.3803075125
  C        37.2822065004       28.5275499739       11.3440161115
  C        37.8931942189       29.5431388058       10.6157322840
  C        35.7697032980       27.7262670033       13.1644992712
  C        35.7803202441       27.7197077492       14.5863579055
  C        36.4748648525       28.7103447870       15.3492479682
  C        46.1355819913       26.6208263100       15.2815609423
  C        46.0880335238       26.5801712919       12.4736762719
  C        22.4606378158        3.2558261597       10.2571357086
  C        23.1542481824        4.3651826568       10.9793506031
  C        24.1581305592        4.0802670645       11.9184995280
  C        24.7851281395        5.1112664710       12.6139875066
  C        24.4281763213        6.4565144058       12.3928655906
  C        23.4475590237        6.7347697253       11.4219655951
  C        22.8159841058        5.7040193881       10.7268827801
  C        25.0574274432        7.5549301731       13.1677396297
  C        25.0498453379        7.5476162672       14.5904270607
  C        24.3561109465        6.5500742969       15.3459077355
  C        26.6278805627       17.8584128339        5.7818203796
  C        25.3217922911       17.8980157283        5.0543413436
  C        25.0749263636       18.8753598093        4.0777797521
  C        23.8603724549       18.8961323985        3.3942334054
  C        22.8577654385       17.9414431033        3.6622369297
  C        23.1034898342       16.9855890372        4.6661275804
  C        24.3188827180       16.9605231863        5.3489562722
  C        21.5833839618       17.9242761109        2.8993885955
  C        21.5810430065       17.8902464834        1.4767809731
  C        22.7848943678       17.7544963110        0.7152607496
  C        34.4377213357       17.1939517426        5.9200900564
  C        35.7328084664       17.1406472236        5.1800087017
  C        35.9370950149       16.1738711889        4.1833780786
  C        37.1175946748       16.1633053620        3.4456707043
  C        38.1248457492       17.1178423599        3.6858736878
  C        37.9241254034       18.0633236448        4.7094068705
  C        36.7408524911       18.0797926416        5.4438249156
  C        39.3785842503       17.1307335384        2.8990968462
  C        39.3753241682       17.1536758681        1.4777034390
  C        38.1685739927       17.2787042866        0.7197500390
  C        20.3337575181       17.9084961180        0.7692526553
  C        20.3582506393       17.9349871099        3.5820490027
  C        34.4781196994       17.2485556050       10.1791882012
  C        35.7807758659       17.1802555798       10.9047488891
  C        36.0006524321       16.1923222144       11.8761417571
  C        37.1851114061       16.1790974184       12.6072615636
  C        38.1780801998       17.1526673470       12.3847847789
  C        37.9647580289       18.1161495110       11.3818015364
  C        36.7777572840       18.1346789333       10.6541955728
  C        39.4242786416       17.1722564262       13.1810497823
  C        39.3987291442       17.1762276509       14.6017529389
  C        38.1800050041       17.2878826174       15.3428738436
  C        35.1493438149       26.6409506797       15.2904193803
  C        35.1797001430       26.6555548885       12.4815088389
  C        26.5714008753       17.8272630933       10.3240120495
  C        25.2553548532       17.8679538540       11.0297187587
  C        24.9871457237       18.8688783913       11.9756088535
  C        23.7701216331       18.8862095902       12.6513879401
  C        22.7908408759       17.9034884429       12.4030969774
  C        23.0525052136       16.9285618692       11.4235844538
  C        24.2709634754       16.9083608356       10.7474481800
  C        21.5274690891       17.8794090603       13.1765193545
  C        21.5524361020       17.8658245346       14.5979136227
  C        22.7708585326       17.7433607019       15.3387878662
  C        14.0465306001       17.8274290188       10.2898610428
  C        15.3500435634       17.8800800642       11.0167113629
  C        15.6079993184       18.8784329919       11.9691001415
  C        16.8167253529       18.8937966927       12.6626650836
  C        17.8019835907       17.9136990181       12.4261429717
  C        17.5486280638       16.9397415791       11.4417263966
  C        16.3394402788       16.9196030933       10.7498815475
  C        19.0714424169       17.8915655806       13.1943424130
  C        19.0713958249       17.8863411747       14.6168681489
  C        17.8650877714       17.7893125334       15.3794520098
  C        46.8066640915       17.2209419689       10.1602817008
  C        45.5192202318       17.1667120064       10.9098277778
  C        45.3123704191       16.1950420855       11.9009562915
  C        44.1327047901       16.1863416112       12.6403337263
  C        43.1310040867       17.1493473940       12.4096734509
  C        43.3355295814       18.1010168018       11.3925730956
  C        44.5157966888       18.1138084545       10.6544878779
  C        41.8783435737       17.1672695551       13.1976260070
  C        41.8824863367       17.1640391702       14.6191996753
  C        43.0907259860       17.2556869096       15.3793788626
  C        20.3187551183       17.8947920042       15.3241560392
  C        20.2949996123       17.8718419711       12.5107776189
  C        46.7860417353       17.2303614583        5.8911254139
  C        45.4817620598       17.1239919345        5.1791160168
  C        45.2635880023       16.1291947890        4.2142355683
  C        44.0752652196       16.1054128007        3.4887268505
  C        43.0767461466       17.0729069130        3.7125243725
  C        43.2842397323       18.0357032740        4.7175965789
  C        44.4739430953       18.0663871252        5.4374882240
  C        41.8320615126       17.1010578693        2.9146552132
  C        41.8591169845       17.1276207318        1.4943384275
  C        43.0795713078       17.2360698791        0.7558643081
  C        46.1533533656       26.6372699662        0.7263190472
  C        46.1625373800       26.6561205674        3.5359557116
  C        14.0468673653       17.8319229197        5.7086747929
  C        15.3689283404       17.9059227806        5.0194314960
  C        15.6427844691       18.9173266208        4.0864411108
  C        16.8726490589       18.9530232896        3.4327367287
  C        17.8573588722       17.9766314200        3.6858315299
  C        17.5905512354       16.9949642356        4.6576123106
  C        16.3626473989       16.9584593620        5.3145783077
  C        19.1248389471       17.9475477705        2.9163882400
  C        19.0992229960       17.9141885544        1.4950041912
  C        17.8788311724       17.8018998928        0.7556366650
  C        28.8065175092       14.0928179951       10.3889560179
  C        28.1898083464       12.9225398113       11.0804030908
  C        28.9123750508       12.1815055225       12.0272090080
  C        28.3125575043       11.1065203030       12.6783348604
  C        26.9760471901       10.7496691904       12.4072681797
  C        26.2747661497       11.4723967937       11.4256566336
  C        26.8726255908       12.5471901591       10.7723287995
  C        26.3078529535        9.6685674712       13.1669571493
  C        26.2969615333        9.6929285668       14.5879151401
  C        26.8037155828       10.8037095672       15.3349183249
  C        32.1797517939       21.2423490702       10.1419396573
  C        32.7763943162       22.4082652677       10.8606370302
  C        32.0269636336       23.0902245815       11.8315672036
  C        32.5989600773       24.1276350636       12.5616656102
  C        33.9358118927       24.5112420723       12.3406576054
  C        34.6677809905       23.8483848094       11.3377615897
  C        34.0981392890       22.8051564943       10.6100282790
  C        34.5650738663       25.5859986783       13.1413141245
  C        34.5565534890       25.5576937981       14.5627780889
  C        34.0456971015       24.4435250338       15.3011061758
  C        25.6869643751        8.6146190839       15.3056279810
  C        25.6715877403        8.6183336783       12.4925360992
  C        32.1059022425       21.2285705309        5.8830944086
  C        32.6964932877       22.3807942093        5.1395180824
  C        31.9566713441       23.0517166425        4.1532391749
  C        32.5383150760       24.0796089234        3.4143949514
  C        33.8727998279       24.4673254746        3.6455684949
  C        34.5948293527       23.8113077088        4.6605845643
  C        34.0183153117       22.7770691595        5.3934493155
  C        34.5133705107       25.5481912352        2.8611185953
  C        34.5285706089       25.5391748252        1.4395221765
  C        34.0309860556       24.4352147051        0.6779331079
  C        40.6225301780       17.1337220157        0.7700581032
  C        40.6012686427       17.1211747693        3.5792443489
  C        28.7356205201       14.0658242196        5.8173704623
  C        28.1226862850       12.9250452234        5.0742032332
  C        28.8681831839       12.2012167571        4.1312403666
  C        28.2847913442       11.1469377349        3.4325050528
  C        26.9410616480       10.7869178551        3.6565049806
  C        26.2112212054       11.4978419661        4.6270138328
  C        26.7922681285       12.5551877262        5.3246307707
  C        26.3008374221        9.6940994360        2.8853097929
  C        26.2960288714        9.7050828073        1.4640100040
  C        26.8024725228       10.8105052226        0.7108974222
  C        18.1353116225        3.1810658033       10.3172007448
  C        17.4060241050        4.2782605229       11.0157195097
  C        16.3905890552        3.9999526686       11.9435854763
  C        15.7429268525        5.0399630745       12.6070715406
  C        16.0946263954        6.3837028342       12.3670758686
  C        17.0836614155        6.6531860123       11.4029324954
  C        17.7326674383        5.6158030607       10.7378856075
  C        15.4704150112        7.4914131200       13.1301479639
  C        15.4856563895        7.4906625742       14.5518570067
  C        16.1872088768        6.4970508727       15.3050381683
  C        42.9459692640       31.8594832282       10.0729017128
  C        43.6463901024       30.7718893735       10.8168266551
  C        44.5917366658       31.0932351326       11.8030841052
  C        45.1974690673       30.0876850034       12.5507193628
  C        44.8712398636       28.7345846705       12.3357156685
  C        43.9456522269       28.4202419062       11.3222741281
  C        43.3368003090       29.4253722393       10.5742546064
  C        45.4888037379       27.6553030424       13.1389288857
  C        45.4928744131       27.6809371936       14.5606207117
  C        44.8057546835       28.6889616935       15.3072437060
  C        14.8567597314        8.5631824720       15.2642316996
  C        14.8752718212        8.5632845837       12.4515696717
  C        42.9465030783       31.9615796762        5.8088945417
  C        43.6916873975       30.8854877200        5.0954481657
  C        44.6560639840       31.1914348790        4.1229369562
  C        45.2776359696       30.1718425834        3.4052924843
  C        44.9541471823       28.8214865503        3.6431539984
  C        44.0209167114       28.5238207254        4.6541785010
  C        43.3925823740       29.5405676289        5.3663087180
  C        45.5631808859       27.7241018677        2.8579155402
  C        45.5333773711       27.7174129073        1.4366191934
  C        44.8270168890       28.7075991940        0.6836379720
  C        35.1366497894       26.6304749779        0.7351997718
  C        35.1240989442       26.6059889242        3.5449341188
  C        18.1484996080        3.2470521558        5.7065463953
  C        17.4300101731        4.3438498723        4.9972722520
  C        16.4149787950        4.0525951056        4.0734880789
  C        15.7666857468        5.0832620409        3.3981664926
  C        16.1211659029        6.4285245150        3.6210988032
  C        17.1123449384        6.7118589029        4.5785912616
  C        17.7600063646        5.6829300119        5.2583269187
  C        15.4907176791        7.5242299801        2.8486687381
  C        15.4966205308        7.5075418338        1.4275443884
  C        16.1934074896        6.5058597856        0.6808480031
  H        10.6722884142       12.4652266518        3.9052247852
  H        11.6946379826       10.5504288353        2.6633050815
  H        15.3923907045       11.1698478498        4.7710916776
  H        14.3518586053       13.0726402179        6.0162257798
  H        13.3764494095       11.6313107200        1.2013830262
  H        50.3229999831       22.7486201046        3.9870228176
  H        49.3198625464       24.6231230317        2.6810120053
  H        45.6421826062       24.1609941029        4.8635400590
  H        46.6631772123       22.2900258979        6.1717683559
  H        47.6298619340       23.5759296992        1.2463127722
  H        14.8723359091        8.5885461766        4.6085752082
  H        50.2871999440       22.7026433808       12.0604276890
  H        49.2692326510       24.5755466126       13.3604730756
  H        45.6104861201       24.1090005004       11.1463402085
  H        46.6526744700       22.2536299017        9.8320858698
  H        47.6077922870       23.5518505350       14.7969349031
  H        40.6620990420       17.1559910955       11.4293031325
  H        48.6871295257       14.0950039781        7.8000101478
  H        10.6812881907       12.4661328118       12.0926441502
  H        11.6897310409       10.5242364414       13.2963839309
  H        15.3944135007       11.1603756857       11.2068414979
  H        14.3657558983       13.0887317090        9.9915779148
  H        13.3762036262       11.6223353069       14.7531031523
  H        47.9301245425       14.2188258277        9.7108153454
  H        47.7802055495       14.3742012133        6.4953202286
  H        49.0846113808       18.5527725076       10.8676452568
  H        10.4162780336       14.1343199789        7.9986946426
  H        24.4807187341        3.0306477793        3.9147324254
  H        25.6172385188        4.8923719214        2.6878318362
  H        23.2394298568        7.7546189408        4.8448863023
  H        22.1213717503        5.8832829742        6.0732762448
  H        23.8050550863        5.7925995529        1.2624800295
  H        36.3762308396       32.1864342504        3.9673397049
  H        35.2543477584       30.3602500681        2.6868810353
  H        37.5206720721       27.4393457930        4.8856755566
  H        38.6227089939       29.2782461419        6.1746899074
  H        37.0303248409       29.4486487036        1.2720858634
  H        25.7190922741        8.6176387214        4.6506006558
  H        36.4565116816       32.2410706913       12.1114995370
  H        35.3455756006       30.4219316330       13.4065738036
  H        37.5295941429       27.4875013420       11.1419666396
  H        38.6152703786       29.3183921055        9.8345774215
  H        37.0491149021       29.4678505600       14.8236402442
  H        46.1095446657       26.5875529216       11.3856416999
  H        44.6682193813       35.1161748974        7.8138945240
  H        24.4375664663        3.0423854330       12.0850179397
  H        25.5671174848        4.8836004568       13.3352616790
  H        23.1605336177        7.7688639906       11.2423218943
  H        22.0429105807        5.9157264245        9.9918200249
  H        23.7861075618        5.7939762034       14.8137989168
  H        44.9537039724       34.3902437302        9.6951014388
  H        44.9016051903       34.2067082636        6.4906317784
  H        40.6660432221       33.2091270246       10.8532049688
  H        23.1503182607        1.9578566584        8.0052016178
  H        25.8497876981       19.6098604738        3.8692265642
  H        23.6733414729       19.6617547441        2.6442442081
  H        22.3424931853       16.2384918442        4.8823897790
  H        24.5181463473       16.2093544618        6.1096929573
  H        23.7249504452       17.6295978914        1.2448649292
  H        35.1519193835       15.4452460818        3.9958228655
  H        37.2760388051       15.4071354695        2.6798447031
  H        38.6949059089       18.8075010867        4.8990517023
  H        36.5677843418       18.8247439946        6.2170587449
  H        37.2290096489       17.3980485354        1.2517466813
  H        20.3661178421       17.9846245097        4.6695268870
  H        35.2242064611       15.4511618042       12.0513052914
  H        37.3566303536       15.4101575671       13.3574211792
  H        38.7261812006       18.8733563649       11.2063737736
  H        36.5899667975       18.8949140520        9.8996099340
  H        37.2490445716       17.4127713499       14.7974869030
  H        35.1517385739       26.6813684468       11.3938265944
  H        28.5095923145       21.0816464292        7.9714851379
  H        25.7450900591       19.6265901243       12.1614772905
  H        23.5618174093       19.6660630492       13.3807584054
  H        22.3043758567       16.1637414402       11.2252172025
  H        24.4893024873       16.1439057136       10.0055680993
  H        23.7002897439       17.6106953381       14.7930852116
  H        29.0069908963       21.7205600433        9.7593948201
  H        29.1468927528       21.7527784900        6.6174602055
  H        32.0960981252       18.5812368355       10.9733138249
  H        27.4017259452       19.0706056655        8.0769569288
  H        14.8509882233       19.6381744644       12.1504526488
  H        17.0130184278       19.6743514462       13.3946008389
  H        18.2987460981       16.1752834247       11.2496775592
  H        16.1326098044       16.1542678651       10.0056357706
  H        16.9219451476       17.6730736898       14.8534610886
  H        46.0928390489       15.4603491639       12.0845683200
  H        43.9716462520       15.4250430841       13.4004103238
  H        42.5699034287       18.8524437901       11.2110214720
  H        44.6910797215       18.8625944655        9.8856483920
  H        44.0327787831       17.3732178653       14.8514520221
  H        20.2881179745       17.9056718800       11.4227585885
  H        46.0412297872       15.3905671717        4.0336509687
  H        43.9080943415       15.3349683427        2.7391634596
  H        42.5169766100       18.7860341097        4.8965764900
  H        44.6574572123       18.8293220758        6.1899663832
  H        44.0131456309       17.3374268293        1.3016574976
  H        46.1994727018       26.6826829920        4.6233972165
  H        52.7413381713       21.0626601975        8.1947102827
  H        14.8818625334       19.6694106514        3.8897836743
  H        17.0831318065       19.7401967188        2.7119141122
  H        18.3418321140       16.2347980493        4.8616879748
  H        16.1421536013       16.1869510075        6.0482883868
  H        16.9458958673       17.6952338898        1.3009327225
  H        52.3229000561       21.6733860710        6.2940366521
  H        52.0133110174       21.7020732458        9.4956467120
  H        49.0677275873       18.6076787644        5.2041063647
  H        13.2479764775       19.0157605655        7.9774672340
  H        29.9423340753       12.4620318665       12.2362742641
  H        28.8744877267       10.5286344999       13.4089332869
  H        25.2419231558       11.2068019534       11.2096592223
  H        26.3301274031       13.1260698937       10.0288062298
  H        27.1680352065       11.6716556137       14.7939018196
  H        30.9993490660       22.7813654897       12.0075650310
  H        32.0131208257       24.6566468426       13.3102423982
  H        35.7023291391       24.1359970482       11.1617785745
  H        34.6682306846       22.2672674447        9.8559752806
  H        33.6893756038       23.5755919730       14.7536703954
  H        25.7007832809        8.6005537069       11.4044850961
  H        30.9267184925       22.7502353187        3.9754299391
  H        31.9587615215       24.6022274171        2.6563844557
  H        35.6274526175       24.1006706602        4.8445543253
  H        34.5808168173       22.2472427585        6.1587124516
  H        33.6642980684       23.5603372116        1.2074363875
  H        40.5935197608       17.0754858162        4.6665809251
  H        32.5148352947       14.1462397016        8.2521704936
  H        29.9089771060       12.4714234476        3.9681649809
  H        28.8695036369       10.5814622591        2.7100614329
  H        25.1711101638       11.2324750484        4.8050636164
  H        26.2264284530       13.1209120198        6.0611064912
  H        27.1646014695       11.6833551673        1.2464242340
  H        33.3028562379       14.2186280579        6.4516148958
  H        33.4091901920       14.4075051102        9.6033987326
  H        32.1325636660       18.5262683063        5.1765199040
  H        30.2257678547       14.1924858547        8.0656491486
  H        16.1186774837        2.9634526772       12.1302238407
  H        14.9536722758        4.8206166729       13.3229549235
  H        17.3658604948        7.6860706572       11.2095292266
  H        18.5143987921        5.8184706667       10.0097161088
  H        16.7538168688        5.7397332386       14.7715685775
  H        44.8278873236       32.1403281843       11.9773970537
  H        45.9372132796       30.3414474908       13.3067797329
  H        43.6831847311       27.3781457193       11.1519718674
  H        42.6003868807       29.1899799231        9.8094107702
  H        44.2303659263       29.4367064183       14.7689472299
  H        14.8515437730        8.5466380990       11.3633472134
  H        44.8994242583       32.2341188026        3.9313007693
  H        46.0244027219       30.4130593612        2.6519186328
  H        43.7642480754       27.4840678017        4.8460105655
  H        42.6463245824       29.3177393479        6.1249872395
  H        44.2684558133       29.4704637131        1.2181961028
  H        35.0825163023       26.6178741887        4.6324403678
  H        36.6050419937       35.1340712073        8.1806136113
  H        16.1440036912        3.0130238583        3.9035899773
  H        14.9744861538        4.8564555267        2.6879328827
  H        17.3956975691        7.7473397473        4.7556698093
  H        18.5427115883        5.8934139654        5.9832604462
  H        16.7648660450        5.7556321885        1.2192669345
  H        36.2782868190       34.4827295829        6.2731066515
  H        36.3805007374       34.2093593474        9.4997069049
  H        40.5804273460       33.2026659229        5.1535027695
  H        17.4705586911        1.9474706415        7.9742091988
  H        29.1278760308       19.4081581370       12.5215389825
  H        30.2060369789       19.6417446231        3.4781873354
  H        30.7573036680       15.3324767395        3.9060167065
  H        31.1250602690       15.4758417995       12.3978975353
  H        28.1391760041       18.1425954476       14.7777601617
  H        29.2352065097       15.0126046220       14.3194173182
  H        30.9555453367       20.7244405635        1.2459854251
  H        29.2295006396       16.7674215993        1.0743751211
  H        32.4636403188       17.9075343244       14.3854661953
  H        18.8534611218        0.8692433191       12.3350905267
  H        40.5278838794       35.2290418628        3.9520511533
  H        42.3239781966       34.4188643031        3.5905077182
  H        22.0878394601        0.6920076986       12.3517461506
  H        11.5970636069       18.7129661287       12.3824288070
  H        52.2651614046       18.4311624710        3.6773740152
  H        49.2549862292       16.4772701225        3.5847473335
  H        10.1503524284       15.7982664443       12.2927394024
  H        50.8502829103       17.6924833308        3.9542405026
  H        10.0463184501       17.3945972440       12.0519121620
  H        20.2146930777        0.0023398119       12.0420148528
  H        39.1835416937       36.1244199322        3.6864873347
 Ni        29.8919862876       17.3489531413        3.0872695203
 Ni        31.0292382505       16.1024960731       -0.3332284947
 Ni        30.2680960644       18.8443832250       -0.0801566437
 Ni        30.1425412062       17.4031157172       13.2343255135
  O        10.6499931197       14.3650831074        5.4858125917
  O        12.6131896157       14.6574899224        6.5838901043
  O        49.1481150198       16.8458553460        7.9897430424
  O        50.3503106525       20.9358635863        5.6480020536
  O        48.3485967121       20.5933366505        6.6658878621
  O        11.0518244784       17.0538519680        6.5006992312
  O        50.3210889038       20.8816629572       10.4068696878
  O        48.3467835350       20.5868412840        9.3271775035
  O        49.5438605964       18.2484331245       10.0682245664
  O        12.3591896909       18.6246657943        7.9996910459
  O        48.6932781539       14.1485256169        6.7513062380
  O         8.2098652550       14.2104084807        9.3225847137
  O        10.7354107344       14.5067442511       10.6643415686
  O        12.5718241401       14.5827968860        9.3284616429
  O        22.8443976270        2.0429549495        5.4872777182
  O        21.6050334586        3.5919939775        6.5901287065
  O        42.0582907724       34.1373686311        7.9790245256
  O        37.9818134340       33.1382289777        5.5726127037
  O        39.2183460835       31.5764006437        6.6668684642
  O        20.3083815482        1.0396411877        6.5020512882
  O        38.0247975810       33.1860231620       10.4151127418
  O        39.2193407891       31.5839569115        9.3262296441
  O        40.6522978651       33.7694029891       10.0603196949
  O        18.2551952595        1.3762447243        7.9968151357
  O        44.6222384710       35.1005311218        6.7587193468
  O        24.2054181136        0.0000106906        9.3208241488
  O        22.7530158523        2.0580083156       10.5838903391
  O        21.6242409071        3.5959401699        9.3422808818
  O        27.4980021766       18.7515567289        5.4995394819
  O        26.7679885882       16.9310565855        6.6560842366
  O        30.6661012766       19.4039906253        8.0557468558
  O        33.5819525950       16.2780280130        5.6645868827
  O        34.2748960251       18.1682689679        6.7346386193
  O        29.5741027760       17.0700608422        6.5763961469
  O        33.6223671868       16.3304153547       10.4107921657
  O        34.3057246165       18.2490434133        9.4047395388
  O        31.6551818171       18.3129103026       10.1515167251
  O        30.3239892168       15.1585307472        8.0822642031
  O        28.5543571938       21.0338747556        6.9017069121
  O        28.5136809392       20.9579047010        9.4122174691
  O        27.4571127629       18.6785489323       10.6601655173
  O        26.6946108197       16.9290092937        9.4126158090
  O        13.1492369975       18.6926232018       10.5876438031
  O        13.9190932780       16.9160412216        9.4047208094
  O        50.5965186177       19.3502644487        8.0204065878
  O        47.6831597285       16.3272352470       10.4174118514
  O        46.9523890022       18.1761747214        9.3240498956
  O        11.0699641999       17.0154164718        9.4896128148
  O        47.6765587566       16.3354140422        5.6533077631
  O        46.9281894665       18.2357449200        6.6651883673
  O        49.5689722614       18.3177329070        5.9822865670
  O        10.3187045717       15.1001497365        7.9970547362
  O        52.6707723776       21.0278490777        9.2418126672
  O        12.1468577979       20.8912088163        6.6732648935
  O        13.1089181705       18.6134571268        5.3253854948
  O        13.9574516689       16.9871515672        6.6653183105
  O        29.9915912482       14.4392623152       10.7275363479
  O        28.0882579218       14.6545119089        9.4926495186
  O        32.1417459912       16.8586742089        8.0781065952
  O        30.9666221899       20.9546594071       10.4073716037
  O        32.9479087532       20.6019146103        9.3382816924
  O        29.5680013850       17.0750643746        9.5756350770
  O        30.8751899527       20.9475625477        5.6603189895
  O        32.8790577257       20.5865356770        6.6659874278
  O        31.6833117226       18.2486146587        5.9908189675
  O        28.2895943947       18.6774082069        8.0750987256
  O        32.4938135505       14.2125945038        9.3291219038
  O        32.4052681128       14.2133292049        6.8243272372
  O        29.9156012394       14.4314412424        5.4926127159
  O        28.0389325684       14.5869932582        6.7524299722
  O        17.8892333857        1.9666369895       10.6628295646
  O        18.9561875457        3.5271515160        9.4079981517
  O        39.1686543112       34.1388935008        7.9971808854
  O        43.2802594730       33.0589623286       10.3317308196
  O        42.0345763449       31.5064554377        9.2416198632
  O        20.3176281649        1.0367331685        9.4802299721
  O        43.2760642020       33.1826250790        5.5749395117
  O        42.0052977241       31.5840961099        6.5829506637
  O        40.5789819695       33.7750082304        5.9358662223
  O        22.3672922600        1.3845357759        7.9979590178
  O        36.6727188270       35.0998286596        9.2332643642
  O        16.4455160542        0.0643039939        6.6683377683
  O        17.9364999356        2.0433644577        5.3263888974
  O        18.9189895948        3.5931474127        6.6659113491
  O        29.8213067339       18.9773487386        4.0887676850
  O        29.8247161528       18.9670025044       12.0003799049
  O        31.1720017463       16.2019326486        4.0773170319
  O        31.3449995178       16.3404826422       11.9950588896
  O        30.1643322866       17.0710039394        1.0739110772
  O        30.0839675167       15.4580386868       14.1620442765
  O        31.5512541065       17.7304625867       14.6691620974
  O        30.7096282306       19.7997628650        1.4166180581
  O        29.0103592964       18.4702554674       14.5055527596
  O        39.4567188912       35.2437739249        4.0019729214
  O        19.1413943136        0.0046999504       11.9905616659
  O        41.9695188876       35.1726722930        4.0871764064
  O        21.6913832473       -0.0693255079       11.8959959680
  O        51.3652750185       18.6143001168        4.0054276561
  O        10.7512385824       18.7471504071       11.9048915454
  O        50.0795542281       16.4127820520        4.0917349054
  O         9.5245154447       16.4831429024       11.9911862371
 Zr         9.2974375514       16.0527791001        6.1825237763
 Zr        49.8367178325       16.0066845433        9.7462887284
 Zr        22.0731957408        0.0298012040        6.1891078545
 Zr        42.4609407769       35.1535008555        9.8009797337
 Zr        29.6002195604       19.1078802300        6.2686056104
 Zr        29.5816883873       19.1749348380        9.8592331895
 Zr        11.0387712382       19.0517643148        9.8277407217
 Zr        11.0447353898       19.1547119329        6.2508321899
 Zr        31.3558245822       16.1016934636        9.8699447047
 Zr        31.3934014507       16.0191062505        6.2943732934
 Zr        18.6011145873       -0.0011590296        9.7633581297
 Zr        18.5064478055       -0.0073889686        6.2137697582
 Zr        12.3029415369       16.3238070461        7.9901163181
 Zr        48.6173852160       18.8332158813        8.0101725505
 Zr        20.3147743041        2.4733811740        7.9906364679
 Zr        40.6437217143       32.6872529125        7.9783277665
 Zr        28.3434532102       16.3498652601        8.0782918317
 Zr        32.6297361892       18.8401606300        8.0527004031
  H        28.5352462091       16.6142181232        3.0058033119
