     576
 i =      262, E =     -4780.0285020937
  C        11.8587716996       14.0535397143        5.7415114227
  C        12.4563121431       12.8906623694        5.0231602615
  C        11.7044869623       12.1713963775        4.0818620099
  C        12.2809008582       11.1092014129        3.3895331118
  C        13.6216060020       10.7397377780        3.6169737383
  C        14.3549438097       11.4436856719        4.5900211164
  C        13.7820340222       12.5086638615        5.2815085838
  C        14.2611155979        9.6490431945        2.8436124712
  C        14.2563987218        9.6569420179        1.4219302863
  C        13.7431088779       10.7590119102        0.6680479286
  C        49.1269504308       21.2332064342        5.8796556670
  C        48.5502211107       22.4012500836        5.1526210247
  C        49.3002248139       23.0685514648        4.1716079271
  C        48.7333032618       24.1077183546        3.4384243978
  C        47.4027876305       24.5093801969        3.6671114290
  C        46.6718622788       23.8605571631        4.6806780461
  C        47.2343181867       22.8156300329        5.4100004451
  C        46.7724793607       25.5870519493        2.8698449422
  C        46.7612935393       25.5573510606        1.4480804026
  C        47.2611938830       24.4422292453        0.7046008666
  C        14.8603685947        8.5706270688        0.7086748085
  C        14.8920042654        8.5971822243        3.5202626920
  C        49.1133043056       21.2034153645       10.1453474034
  C        48.5278995742       22.3647967289       10.8725877491
  C        49.2671021641       23.0254858405       11.8655214653
  C        48.6907693443       24.0600384253       12.5969999322
  C        47.3603767502       24.4568206691       12.3587473006
  C        46.6399846215       23.8119568314       11.3351880345
  C        47.2135400392       22.7760470167       10.6034049145
  C        46.7219052226       25.5318004555       13.1497447590
  C        46.7334633877       25.5281024001       14.5714443051
  C        47.2488845083       24.4288963616       15.3278398006
  C        40.6346209845       17.1566415356       15.3210375628
  C        40.6581162599       17.1793631586       12.5122136684
  C        11.8830805116       14.0865615512       10.2855494596
  C        12.4724987830       12.9109053980       10.9898932792
  C        11.7148446949       12.1773532775       11.9156095943
  C        12.2814906861       11.0949201936       12.5840093283
  C        13.6204857254       10.7216002412       12.3525347271
  C        14.3586230774       11.4375248174       11.3921253428
  C        13.7931281468       12.5186633773       10.7194395472
  C        14.2540555176        9.6247745481       13.1228828522
  C        14.2526357155        9.6446444911       14.5447245001
  C        13.7426421795       10.7535415283       15.2917974566
  C        22.5114272098        3.2460525018        5.7514332368
  C        23.2227058330        4.3527536632        5.0494596551
  C        24.2173734994        4.0753602729        4.0998747351
  C        24.8411213171        5.1163819460        3.4165939256
  C        24.4863846979        6.4580227979        3.6617952751
  C        23.5197584686        6.7268611541        4.6481617528
  C        22.8914280909        5.6877347097        5.3299684894
  C        25.0898663618        7.5662695329        2.8855355438
  C        25.0629318604        7.5595399582        1.4636367257
  C        24.3632640866        6.5592053359        0.7165727713
  C        38.3042307475       31.9300166294        5.8489729512
  C        37.5782372694       30.8388643838        5.1384850960
  C        36.6197327466       31.1396217186        4.1590176901
  C        36.0071875073       30.1168631116        3.4403052792
  C        36.3388619498       28.7691806651        3.6804884646
  C        37.2679201990       28.4757796550        4.6961497218
  C        37.8846327828       29.4972313589        5.4133852016
  C        35.7403315898       27.6753608355        2.8839681168
  C        35.7726158442       27.6893713805        1.4628601634
  C        36.4788271912       28.6915164645        0.7255295659
  C        25.6855154379        8.6299793332        0.7436821403
  C        25.6867990140        8.6418049130        3.5558923279
  C        38.3293118140       31.9625051000       10.1560204811
  C        37.6088918085       30.8883276373       10.8979872061
  C        36.6823512292       31.1955279753       11.9059442339
  C        36.0747354257       30.1757223258       12.6357916082
  C        36.3794785124       28.8238163030       12.3804099177
  C        37.2832308668       28.5265324262       11.3421589877
  C        37.8931850500       29.5428183502       10.6139365699
  C        35.7744548237       27.7233105545       13.1646494820
  C        35.7900853020       27.7140747399       14.5864349083
  C        36.4868920351       28.7035127054       15.3488257569
  C        46.1355091587       26.6207806518       15.2815616971
  C        46.0880812917       26.5802213287       12.4736784127
  C        22.4621158129        3.2564034364       10.2570069167
  C        23.1582993053        4.3654302165       10.9773283685
  C        24.1617178237        4.0801479210       11.9170409133
  C        24.7913688776        5.1109414187       12.6106841330
  C        24.4378815278        6.4567925446       12.3872888516
  C        23.4578757088        6.7352933503       11.4157300280
  C        22.8235949658        5.7048019832       10.7225627126
  C        25.0677047789        7.5559153137       13.1614233926
  C        25.0524516116        7.5533859639       14.5841685488
  C        24.3561594410        6.5575995660       15.3395934652
  C        26.6252719235       17.8625955514        5.7847379806
  C        25.3173101164       17.9049464178        5.0608424399
  C        25.0641727873       18.8879590650        4.0910327290
  C        23.8509356457       18.9050086922        3.4052256456
  C        22.8543445678       17.9419457660        3.6656269711
  C        23.1046625625       16.9818490551        4.6643332623
  C        24.3194009188       16.9595242874        5.3483548442
  C        21.5807717309       17.9228190366        2.9015566623
  C        21.5796974796       17.8904430105        1.4790529597
  C        22.7839395899       17.7565255402        0.7181728969
  C        34.4183059759       17.2260230699        5.8838629400
  C        35.7125441299       17.1684732480        5.1467663849
  C        35.9092886711       16.2166099970        4.1338257962
  C        37.0964260331       16.2002324269        3.4072407614
  C        38.1166910818       17.1347584863        3.6723349308
  C        37.9219049020       18.0648869930        4.7113644893
  C        36.7336109487       18.0862257788        5.4368211401
  C        39.3739071282       17.1446581763        2.8919580551
  C        39.3728266282       17.1722841177        1.4704982069
  C        38.1688583593       17.3089290053        0.7101683971
  C        20.3327716679       17.9079971228        0.7708563291
  C        20.3557413618       17.9318513352        3.5839414650
  C        34.4779976888       17.2459316266       10.1798042955
  C        35.7818006537       17.1746529842       10.9005073935
  C        35.9898469169       16.2048207294       11.8924949048
  C        37.1755886578       16.1919577251       12.6212928499
  C        38.1806375309       17.1477685907       12.3768230899
  C        37.9789651602       18.0914746611       11.3524126917
  C        36.7909131318       18.1101719641       10.6270319983
  C        39.4258448940       17.1714659285       13.1740198130
  C        39.3996579730       17.1865233172       14.5948349261
  C        38.1812780026       17.3130559360       15.3335551635
  C        35.1611364588       26.6342720453       15.2906507486
  C        35.1812365440       26.6543499574       12.4817642230
  C        26.5682666738       17.8247732970       10.3255180023
  C        25.2549397201       17.8640127168       11.0329132800
  C        24.9948753484       18.8561209539       11.9901817454
  C        23.7769727969       18.8759787380       12.6636518172
  C        22.7909036752       17.9028083862       12.4051566971
  C        23.0462831162       16.9350082514       11.4167385400
  C        24.2645312754       16.9134400784       10.7406617660
  C        21.5278344580       17.8793457147       13.1785529224
  C        21.5524969660       17.8657209530       14.6001615157
  C        22.7706994613       17.7440875790       15.3417014890
  C        14.0465026020       17.8274319442       10.2900725238
  C        15.3500858296       17.8800886082       11.0173073543
  C        15.6086100147       18.8795438366       11.9683999040
  C        16.8173083819       18.8951851677       12.6621528732
  C        17.8020062373       17.9141594694       12.4272013328
  C        17.5480771760       16.9388848939       11.4442418664
  C        16.3389521066       16.9185987088       10.7521389166
  C        19.0714922606       17.8920918963       13.1957200152
  C        19.0712110189       17.8868522273       14.6182293716
  C        17.8646014243       17.7901564428       15.3802801347
  C        46.8074184761       17.2204363974       10.1598245084
  C        45.5202769396       17.1650741933       10.9089863397
  C        45.3143172079       16.1925892286       11.8994103174
  C        44.1346223012       16.1825209960       12.6385246611
  C        43.1327939139       17.1450720277       12.4076755687
  C        43.3363836746       18.0976165729       11.3913209108
  C        44.5166371043       18.1117465349       10.6535764207
  C        41.8798844778       17.1632621048       13.1945188292
  C        41.8830172221       17.1646634858       14.6160071592
  C        43.0904871387       17.2542926043       15.3775926267
  C        20.3184568613       17.8948080551       15.3257857922
  C        20.2952451663       17.8722121399       12.5126860532
  C        46.7844654810       17.2306580265        5.8904851354
  C        45.4793158546       17.1246861689        5.1783516767
  C        45.2595528507       16.1300866387        4.2134718727
  C        44.0706776997       16.1067258766        3.4883686173
  C        43.0722961921       17.0746821074        3.7117229458
  C        43.2814246934       18.0372479734        4.7168853695
  C        44.4715731302       18.0673586836        5.4365535636
  C        41.8277025056       17.1053755388        2.9124235856
  C        41.8564093660       17.1332095337        1.4916913045
  C        43.0779463452       17.2367513589        0.7542541163
  C        46.1532832197       26.6372299964        0.7263215292
  C        46.1626669011       26.6562545893        3.5359713206
  C        14.0461716693       17.8316923844        5.7088664397
  C        15.3679552138       17.9050912037        5.0195367763
  C        15.6426655763       18.9176956047        4.0882265136
  C        16.8724687316       18.9528059205        3.4345709373
  C        17.8555352861       17.9745741041        3.6863959908
  C        17.5878671207       16.9915267561        4.6563861219
  C        16.3601064316       16.9557205215        5.3134131614
  C        19.1229390796       17.9453604771        2.9174322260
  C        19.0980063480       17.9131703111        1.4961066676
  C        17.8777066497       17.8019261991        0.7564497930
  C        28.8090766272       14.0859194913       10.3609304090
  C        28.2030318114       12.9146444735       11.0564810591
  C        28.9205722816       12.1938587884       12.0225812316
  C        28.3216284508       11.1219236456       12.6806429958
  C        26.9922404089       10.7473363061       12.3971786897
  C        26.2972045644       11.4505335201       11.3965709190
  C        26.8927231680       12.5225561859       10.7375154221
  C        26.3205148337        9.6692849275       13.1594501478
  C        26.2972219519        9.7002682180       14.5803708684
  C        26.7928989555       10.8166490404       15.3255896828
  C        32.1787455520       21.2424133196       10.1450275872
  C        32.7761830684       22.4073217114       10.8633656291
  C        32.0301432840       23.0832733742       11.8411459122
  C        32.6031991341       24.1207474657       12.5702886820
  C        33.9373452766       24.5097965687       12.3417527220
  C        34.6655715928       23.8522334834       11.3326672001
  C        34.0951170240       22.8090964473       10.6056995070
  C        34.5690303724       25.5834332654       13.1417336721
  C        34.5663235966       25.5522273147       14.5630905904
  C        34.0590911034       24.4364283569       15.3012716814
  C        25.6851130181        8.6232449927       15.2988399192
  C        25.6882658654        8.6154723167       12.4858424619
  C        32.1064747525       21.2314737703        5.8861299415
  C        32.7010451453       22.3801183752        5.1417838555
  C        31.9706866439       23.0391711673        4.1407041935
  C        32.5558640239       24.0646396349        3.4019754112
  C        33.8850711013       24.4618769379        3.6466389195
  C        34.5982120519       23.8166760301        4.6751745323
  C        34.0180751618       22.7849902953        5.4086700362
  C        34.5279682779       25.5406685202        2.8618193934
  C        34.5443513961       25.5305223968        1.4400446359
  C        34.0475489020       24.4264885983        0.6780560844
  C        40.6208706312       17.1447170323        0.7651895425
  C        40.5954880044       17.1278719847        3.5747964262
  C        28.7222623292       14.1003146746        5.7815572869
  C        28.1178333953       12.9506715995        5.0474759792
  C        28.8490362007       12.2546889149        4.0723244562
  C        28.2682439106       11.1913480295        3.3853257234
  C        26.9403994154       10.7975628268        3.6467787999
  C        26.2272383355       11.4803224903        4.6502530711
  C        26.8061537984       12.5431119505        5.3401245911
  C        26.2973671740        9.7051837558        2.8779837109
  C        26.2867892093        9.7189030728        1.4561051578
  C        26.7854947546       10.8268468785        0.7013401169
  C        18.1354886509        3.1811375447       10.3171929369
  C        17.4062693506        4.2783428200       11.0157920127
  C        16.3904631729        4.0000349109       11.9432426018
  C        15.7427691314        5.0400391357       12.6067110092
  C        16.0948122398        6.3837544566       12.3670974831
  C        17.0843368802        6.6532338508       11.4034532677
  C        17.7333962872        5.6158582882       10.7384254563
  C        15.4704854453        7.4914488166       13.1301535179
  C        15.4856787857        7.4906827448       14.5518750672
  C        16.1871995359        6.4970314484       15.3050426643
  C        42.9460474785       31.8596295451       10.0729386700
  C        43.6464819091       30.7719647941       10.8168495981
  C        44.5918875805       31.0932920300       11.8030398413
  C        45.1975956260       30.0877421824       12.5507079654
  C        44.8713287122       28.7346598037       12.3357278996
  C        43.9457309001       28.4203168992       11.3223014158
  C        43.3369188627       29.4254509693       10.5742540356
  C        45.4888106003       27.6553233201       13.1389303559
  C        45.4928752471       27.6809330165       14.5606175800
  C        44.8058475497       28.6890246525       15.3072319355
  C        14.8566478479        8.5631280872       15.2642520190
  C        14.8753311957        8.5632991793       12.4515507012
  C        42.9465533439       31.9617124424        5.8090013048
  C        43.6919046828       30.8856070424        5.0956091372
  C        44.6562128169       31.1915565988        4.1230420140
  C        45.2777740059       30.1719891344        3.4053172158
  C        44.9543219378       28.8216320409        3.6431993602
  C        44.0212256306       28.5239392721        4.6543488400
  C        43.3929463115       29.5406811531        5.3665422278
  C        45.5632651348       27.7242094982        2.8579153931
  C        45.5333977975       27.7174410090        1.4366128932
  C        44.8270980341       28.7076722652        0.6836274988
  C        35.1512311300       26.6222939530        0.7354305600
  C        35.1369432362       26.5999006538        3.5451597794
  C        18.1486455462        3.2471082699        5.7065485966
  C        17.4301607491        4.3438939589        4.9972266827
  C        16.4148045747        4.0526736096        4.0737845818
  C        15.7665419080        5.0833395626        3.3984247257
  C        16.1213195616        6.4285572108        3.6210881916
  C        17.1128767118        6.7118793969        4.5781724011
  C        17.7605294759        5.6829497330        5.2579189875
  C        15.4907769935        7.5242319920        2.8486701545
  C        15.4966342947        7.5075560927        1.4275500791
  C        16.1934188450        6.5058726697        0.6808565107
  H        10.6722357235       12.4652494836        3.9051040460
  H        11.6945246681       10.5504577302        2.6632760507
  H        15.3921249327       11.1694468902        4.7714049477
  H        14.3516651607       13.0722398547        6.0165501386
  H        13.3760192791       11.6310809847        1.2013777422
  H        50.3229213713       22.7484906865        3.9868397794
  H        49.3197965380       24.6229878200        2.6808533610
  H        45.6424075732       24.1614281887        4.8639343292
  H        46.6633692070       22.2903751097        6.1721391687
  H        47.6297933687       23.5758924318        1.2463158555
  H        14.8724277056        8.5884949223        4.6085612454
  H        50.2871644204       22.7026598731       12.0603909586
  H        49.2691894837       24.5754943943       13.3604771987
  H        45.6106113267       24.1092710947       11.1460765758
  H        46.6527870679       22.2539157579        9.8317641191
  H        47.6077132537       23.5517981928       14.7969487543
  H        40.6669372373       17.1418183474       11.4246314878
  H        48.6870494058       14.0949796825        7.8000207814
  H        10.6812355403       12.4661120445       12.0927071706
  H        11.6896185415       10.5242216106       13.2964003730
  H        15.3942345841       11.1600261418       11.2065782105
  H        14.3656158865       13.0883761540        9.9912908269
  H        13.3757630178       11.6221326256       14.7531509213
  H        47.9303355933       14.2178218650        9.7110302672
  H        47.7800089901       14.3733227333        6.4951129258
  H        49.0846821865       18.5528120593       10.8676119116
  H        10.4161298980       14.1342756182        7.9986583840
  H        24.4799945601        3.0374357447        3.9075944076
  H        25.6127400559        4.8998847868        2.6809619662
  H        23.2376198689        7.7591258338        4.8447209440
  H        22.1232219367        5.8871963297        6.0730969942
  H        23.8013455163        5.8023770344        1.2560732024
  H        36.3799491813       32.1820799910        3.9632335988
  H        35.2633537446       30.3525277451        2.6823784677
  H        37.5312436413       27.4375907555        4.8876396762
  H        38.6280135793       29.2799419457        6.1766575008
  H        37.0449523164       29.4405140180        1.2715922557
  H        25.7232021550        8.6241296767        4.6436572907
  H        36.4596307497       32.2394300345       12.1150026664
  H        35.3509945755       30.4190521805       13.4105240328
  H        37.5300792020       27.4866614804       11.1385455287
  H        38.6140122572       29.3188964486        9.8313803872
  H        37.0603666862       29.4612537265       14.8227013795
  H        46.1096744120       26.5876747080       11.3856507032
  H        44.6684332757       35.1163043711        7.8139368865
  H        24.4389169043        3.0419985541       12.0856090396
  H        25.5726585561        4.8825491865       13.3325332447
  H        23.1734878741        7.7697780157       11.2340591081
  H        22.0511449512        5.9173717556        9.9870868531
  H        23.7882633769        5.7999771843       14.8073372217
  H        44.9543868994       34.3908818550        9.6954522032
  H        44.9022467178       34.2071217940        6.4904741407
  H        40.6665191921       33.2095269741       10.8533432676
  H        23.1504362343        1.9584059366        8.0046005158
  H        25.8319902777       19.6316379652        3.8896242415
  H        23.6600788201       19.6737518572        2.6593940376
  H        22.3478041557       16.2290465295        4.8752966471
  H        24.5221166223       16.2042312828        6.1041075122
  H        23.7243672223       17.6341084838        1.2475598734
  H        35.1175839398       15.5005988823        3.9252292377
  H        37.2488161198       15.4539506337        2.6305913586
  H        38.7022611615       18.7936849220        4.9206333131
  H        36.5668485518       18.8180008237        6.2239110088
  H        37.2293082193       17.4385238916        1.2393062736
  H        20.3627619880       17.9801298698        4.6714815933
  H        35.2027056076       15.4807029396       12.0898780103
  H        37.3363906808       15.4374253492       13.3881903501
  H        38.7495342112       18.8350524940       11.1596390694
  H        36.6117827295       18.8570919658        9.8572514956
  H        37.2515806913       17.4440463925       14.7873918964
  H        35.1490320995       26.6826044548       11.3942699908
  H        28.5086354640       21.0793703283        7.9843404437
  H        25.7599517505       19.6025283450       12.1909276762
  H        23.5748166644       19.6497491057       13.4010627486
  H        22.2936726896       16.1764383970       11.2115580450
  H        24.4780407101       16.1543272689        9.9919584672
  H        23.7011078539       17.6121359480       14.7974493089
  H        28.9940458074       21.7235093671        9.7661426003
  H        29.1541168083       21.7497172164        6.6290468754
  H        32.0998790936       18.5511905638       10.9857813413
  H        27.4016035214       19.0700767967        8.0787201024
  H        14.8520558844       19.6400013826       12.1486642678
  H        17.0138848736       19.6766987290       13.3929930431
  H        18.2976200740       16.1735308227       11.2534808506
  H        16.1317824963       16.1522478733       10.0090133699
  H        16.9216479855       17.6748352330       14.8537350695
  H        46.0954084053       15.4584453106       12.0824711046
  H        43.9735603486       15.4206499649       13.3980156236
  H        42.5699927905       18.8483829071       11.2103882500
  H        44.6918771722       18.8609068779        9.8851010181
  H        44.0335912335       17.3675778048       14.8505924923
  H        20.2886082462       17.9062515911       11.4246759075
  H        46.0364195877       15.3907406974        4.0323625109
  H        43.9033431093       15.3359476713        2.7391531708
  H        42.5151063584       18.7885036139        4.8961831591
  H        44.6552847108       18.8304553369        6.1888582514
  H        44.0114165979       17.3353196295        1.3007560333
  H        46.1997528362       26.6829131138        4.6234144250
  H        52.7412973974       21.0626721865        8.1947244886
  H        14.8825026077       19.6708890206        3.8929232237
  H        17.0841801362       19.7407026178        2.7149080991
  H        18.3381645409       16.2299777411        4.8588908759
  H        16.1383190645       16.1834410884        6.0459169299
  H        16.9445703288       17.6954899618        1.3014213118
  H        52.3228715163       21.6733729483        6.2940784614
  H        52.0134639560       21.7021859422        9.4957097098
  H        49.0675534390       18.6075630723        5.2039645277
  H        13.2478521218       19.0159043375        7.9776261043
  H        29.9431316688       12.4893439851       12.2476100391
  H        28.8802505414       10.5630345327       13.4283492149
  H        25.2698016342       11.1725637109       11.1705317354
  H        26.3525680220       13.0869879537        9.9814398983
  H        27.1561755829       11.6857090899       14.7854411608
  H        31.0051005483       22.7690587629       12.0235926147
  H        32.0201699472       24.6452718472       13.3241909607
  H        35.6981285260       24.1436915169       11.1514206690
  H        34.6627508574       22.2749378381        9.8471809059
  H        33.7013959112       23.5694425881       14.7533517779
  H        25.7250175978        8.5922644676       11.3980787523
  H        30.9463405931       22.7298889110        3.9468127982
  H        31.9824260421       24.5770300894        2.6325402013
  H        35.6270019849       24.1126820289        4.8698460000
  H        34.5739681410       22.2642862937        6.1849671242
  H        33.6809450314       23.5514876280        1.2071672949
  H        40.5858753185       17.0784276670        4.6620061947
  H        32.5239772670       14.1435512171        8.2808834131
  H        29.8754156348       12.5518686418        3.8689214094
  H        28.8442042167       10.6492603883        2.6385148137
  H        25.1997879374       11.1895775194        4.8593192050
  H        26.2520150324       13.0852118047        6.1027189591
  H        27.1420686378       11.7043209283        1.2325328458
  H        33.2826695803       14.1634090348        6.4052947104
  H        33.4107685195       14.4129620797        9.6145299747
  H        32.1522963160       18.5800825956        5.2081382142
  H        30.2290438564       14.1921553361        8.0631415240
  H        16.1182703195        2.9635564201       12.1295662384
  H        14.9532090086        4.8207302151       13.3222779924
  H        17.3669277940        7.6860934121       11.2104436736
  H        18.5155607371        5.8185156640       10.0107165341
  H        16.7538618065        5.7397625041       14.7715406328
  H        44.8281003091       32.1403770131       11.9773234608
  H        45.9374056818       30.3415306111       13.3066940582
  H        43.6833006150       27.3782160482       11.1519747222
  H        42.6005242360       29.1901208826        9.8093709477
  H        44.2306415535       29.4368925461       14.7689157273
  H        14.8517130618        8.5466579186       11.3633152783
  H        44.8995782806       32.2342483654        3.9314163274
  H        46.0245171027       30.4132796143        2.6519316857
  H        43.7647068673       27.4841575747        4.8462598813
  H        42.6468414983       29.3178753733        6.1253754453
  H        44.2687374861       29.4706860017        1.2181929552
  H        35.0932538107       26.6138372677        4.6325669208
  H        36.6051997801       35.1340888383        8.1806655150
  H        16.1435898815        3.0131212716        3.9041379886
  H        14.9741067374        4.8565629982        2.6884474674
  H        17.3965425848        7.7473176453        4.7549463273
  H        18.5435733037        5.8934081146        5.9824958440
  H        16.7649199817        5.7556831441        1.2192819511
  H        36.2784767443       34.4828134763        6.2728804029
  H        36.3809680106       34.2092185657        9.4996430454
  H        40.5812927220       33.2033609615        5.1532020816
  H        17.4709263978        1.9477702214        7.9741322190
  H        28.8798907173       19.2104569576       12.4145186032
  H        29.7949227072       19.9348735453        3.6823290457
  H        31.8792925285       16.2635854449        3.0937055933
  H        31.1529766235       15.6092266222       12.5446783452
  H        27.9424617269       17.6303591428       14.5999992012
  H        29.3821967312       15.1955454047       14.4115555566
  H        31.4636345883       20.0038882689        1.2504121282
  H        33.1131072367       17.4081086678        1.8381326364
  H        28.8776394639       16.6627849275        1.3414564553
  H        32.0196514457       18.5764741697       14.8721212084
  H        18.8535196922        0.8690844515       12.3352285838
  H        40.5279944186       35.2289710092        3.9518958222
  H        42.3255128216       34.4202776046        3.5897275770
  H        22.0878200967        0.6922520848       12.3517810090
  H        11.5968915066       18.7132476974       12.3825481316
  H        52.2650334884       18.4311603124        3.6772565131
  H        49.2553300306       16.4766925293        3.5842342606
  H        10.1509837141       15.7981209896       12.2924758981
  H        50.8501852940       17.6924746224        3.9542304562
  H        10.0465907869       17.3944930415       12.0519221918
  H        20.2149108103        0.0024253689       12.0419647618
  H        39.1838651433       36.1246575212        3.6865873302
 Ni        30.6926441570       18.0559215699        2.6640381145
 Ni        31.1932344875       16.1120275911        0.0041839925
 Ni        29.6792306366       18.7925470341       -0.0017841409
 Ni        30.1416836237       17.4977429048       13.3233448838
  O        10.6499537524       14.3651480746        5.4858412263
  O        12.6131921087       14.6574920189        6.5838806813
  O        49.1480946140       16.8458728728        7.9896404250
  O        50.3502974211       20.9358228172        5.6480021099
  O        48.3485815177       20.5933653766        6.6658793605
  O        11.0517383286       17.0538412669        6.5006806368
  O        50.3210558852       20.8816576038       10.4068208591
  O        48.3467743024       20.5867876749        9.3271326306
  O        49.5438807399       18.2484185923       10.0681918968
  O        12.3591362713       18.6246622836        7.9996705724
  O        48.6932592512       14.1485896727        6.7512825045
  O         8.2099422965       14.2103600966        9.3225015302
  O        10.7353976540       14.5067292987       10.6643195932
  O        12.5718189968       14.5828011126        9.3284836365
  O        22.8451148667        2.0447015499        5.4868192067
  O        21.6057182014        3.5927375906        6.5894659990
  O        42.0584511675       34.1377340928        7.9789474470
  O        37.9818681763       33.1376684482        5.5724405827
  O        39.2187547215       31.5765198458        6.6672836453
  O        20.3086168193        1.0399299013        6.5021259963
  O        38.0246790789       33.1858149128       10.4152501887
  O        39.2193741188       31.5839409304        9.3262097230
  O        40.6523777175       33.7695402919       10.0602717023
  O        18.2554613745        1.3763895997        7.9967591509
  O        44.6221653366       35.1006366686        6.7587629720
  O        24.2054205253        0.0000454236        9.3207609892
  O        22.7531433365        2.0581733372       10.5839145447
  O        21.6245997042        3.5961782329        9.3427619712
  O        27.4995138417       18.7524314815        5.4980357003
  O        26.7682266286       16.9322854985        6.6550543013
  O        30.6682458167       19.4045001854        8.0633036517
  O        33.5392296074       16.3400523244        5.5853481719
  O        34.2728949111       18.1679107089        6.7351988675
  O        29.5796272965       17.0687065830        6.5711810894
  O        33.6204123893       16.3300493825       10.4110432741
  O        34.3046772009       18.2482947921        9.4050224144
  O        31.6531286332       18.3154737347       10.1560251021
  O        30.3266256992       15.1586138425        8.0773449896
  O        28.5548766958       21.0331196652        6.9055511481
  O        28.5125613888       20.9578923245        9.4094705333
  O        27.4536536964       18.6782065579       10.6584539877
  O        26.6939242937       16.9289855924        9.4119481620
  O        13.1492455340       18.6926409916       10.5877452389
  O        13.9192240155       16.9161038547        9.4048772921
  O        50.5964273691       19.3502606900        8.0203572111
  O        47.6839157785       16.3269311549       10.4172321438
  O        46.9526373496       18.1760513040        9.3239438492
  O        11.0699670696       17.0154803348        9.4896327385
  O        47.6750349449       16.3356521801        5.6529190144
  O        46.9271809012       18.2359658661        6.6647073944
  O        49.5687609740       18.3176951368        5.9821960836
  O        10.3186558829       15.1001185814        7.9970827746
  O        52.6707583405       21.0278209129        9.2418198595
  O        12.1468596598       20.8911769668        6.6732474023
  O        13.1086525910       18.6135128682        5.3255229481
  O        13.9571870192       16.9870369288        6.6655476996
  O        29.9994852225       14.4346515423       10.6662437093
  O        28.0786633065       14.6584129794        9.4822543636
  O        32.1407038599       16.8543112096        8.0790796158
  O        30.9667766870       20.9540512893       10.4089186566
  O        32.9477439834       20.6030435778        9.3392615795
  O        29.5678678950       17.0748253626        9.5726372220
  O        30.8755855189       20.9525481177        5.6656550421
  O        32.8797881687       20.5838526265        6.6665499849
  O        31.6788182623       18.2488667647        5.9873483559
  O        28.2893321161       18.6764925023        8.0773060755
  O        32.4971891221       14.2130858554        9.3365078352
  O        32.4030434651       14.2177206237        6.8145378701
  O        29.8784299594       14.5127748453        5.4125145486
  O        28.0446386711       14.5860995236        6.7491314594
  O        17.8892978082        1.9666737739       10.6627859214
  O        18.9562650880        3.5271852028        9.4079584180
  O        39.1686835876       34.1389354650        7.9972306302
  O        43.2802436207       33.0590346024       10.3317358622
  O        42.0346038364       31.5064702728        9.2416721520
  O        20.3178437043        1.0369614584        9.4799656523
  O        43.2760388133       33.1826408600        5.5748852759
  O        42.0052904069       31.5841188117        6.5829866423
  O        40.5790781629       33.7751977621        5.9359167092
  O        22.3675177842        1.3848583613        7.9978894095
  O        36.6727981890       35.0998280545        9.2332907047
  O        16.4456552640        0.0643316846        6.6682602230
  O        17.9364996751        2.0433889963        5.3264106735
  O        18.9190984721        3.5931565318        6.6658977009
  O        29.8659600428       19.0498580416        4.0861459427
  O        29.7376264136       18.9803105062       12.0038549186
  O        31.2269276109       16.1237469010        3.9241408794
  O        31.3038983832       16.4128891294       11.9997544022
  O        32.2290795687       17.0069579524        1.8460535520
  O        29.7002043823       17.1460865274        1.1608339841
  O        30.1701359021       15.7506272475       14.3134951055
  O        31.2299931781       18.0226517998       14.9804350622
  O        30.5731351217       19.7063907944        1.4981333238
  O        28.5962915706       18.3251735277       14.4221115816
  O        39.4568405698       35.2438946908        4.0019501610
  O        19.1414797464        0.0046025777       11.9905382168
  O        41.9695829354       35.1728144810        4.0872498260
  O        21.6913848460       -0.0690646424       11.8959498573
  O        51.3652027354       18.6142974946        4.0053939950
  O        10.7511280980       18.7472075152       11.9049002668
  O        50.0796183287       16.4127966782        4.0917475277
  O         9.5249880146       16.4829772695       11.9912164780
 Zr         9.2972158145       16.0527195797        6.1824653141
 Zr        49.8368461699       16.0065161119        9.7463406860
 Zr        22.0736887892        0.0307933739        6.1888512861
 Zr        42.4613265321       35.1541634253        9.8011624774
 Zr        29.6011015601       19.1051287475        6.2910212146
 Zr        29.5749927306       19.1741075396        9.8815444332
 Zr        11.0385842508       19.0517848987        9.8277269946
 Zr        11.0444754821       19.1547267260        6.2508718307
 Zr        31.3435775948       16.1005340733        9.9160099773
 Zr        31.4102109057       16.0246230113        6.3308095078
 Zr        18.6015117095       -0.0005754415        9.7632315910
 Zr        18.5068293927       -0.0069901725        6.2139398158
 Zr        12.3026407453       16.3235618878        7.9902331861
 Zr        48.6172265043       18.8331640591        8.0099936686
 Zr        20.3157645553        2.4744266064        7.9904973035
 Zr        40.6443720736       32.6879564437        7.9783585293
 Zr        28.3428911009       16.3489184748        8.0853605140
 Zr        32.6276711866       18.8452662466        8.0671659532
  H        30.6238298290       15.3799183675        3.7191817044
  H        29.9310544233       20.8851051891       -0.8059260631
  H        29.8924760154       20.5707166258       -1.4898266674
  H        31.2527781122       14.7349301602        0.6407877057
