     576
 i =      203, E =     -4779.9315681753
  C        11.8587835016       14.0534888456        5.7415328119
  C        12.4563216818       12.8906158814        5.0232103690
  C        11.7045641577       12.1715125109        4.0817327954
  C        12.2809747505       11.1093282300        3.3893887877
  C        13.6216225103       10.7397172507        3.6169909481
  C        14.3548794420       11.4434884374        4.5902409965
  C        13.7819583572       12.5084521026        5.2817397800
  C        14.2611586150        9.6490510256        2.8436055503
  C        14.2564353322        9.6569534526        1.4219122575
  C        13.7432185597       10.7590612524        0.6680207629
  C        49.1269342360       21.2332324126        5.8796652935
  C        48.5502112852       22.4012089347        5.1525876482
  C        49.3002039574       23.0685047845        4.1715577279
  C        48.7332646370       24.1076484777        3.4383619702
  C        47.4027588150       24.5093442075        3.6670797466
  C        46.6718429718       23.8605128145        4.6806450005
  C        47.2343134715       22.8156097005        5.4099763471
  C        46.7724502177       25.5869970994        2.8698074815
  C        46.7613661821       25.5573439996        1.4480499633
  C        47.2612686584       24.4422330463        0.7045595749
  C        14.8604030872        8.5706358839        0.7086495162
  C        14.8919692825        8.5971263595        3.5202552226
  C        49.1133313773       21.2035096287       10.1453494053
  C        48.5279877689       22.3648804568       10.8725565748
  C        49.2671790327       23.0255356899       11.8655292185
  C        48.6908341181       24.0600662660       12.5970199367
  C        47.3604620162       24.4569117738       12.3586989363
  C        46.6400864357       23.8120710690       11.3351089563
  C        47.2136563453       22.7761889668       10.6033124835
  C        46.7219824469       25.5318656095       13.1497142469
  C        46.7335782650       25.5281512456       14.5714155064
  C        47.2489981158       24.4289312604       15.3277992922
  C        40.6365248272       17.1638434355       15.3220593931
  C        40.6569454210       17.1854954578       12.5132662602
  C        11.8830537432       14.0865460049       10.2855325723
  C        12.4723953704       12.9107890877       10.9897741745
  C        11.7148874744       12.1775696918       11.9158814338
  C        12.2814914058       11.0951132889       12.5842729605
  C        13.6203217153       10.7214216926       12.3524454244
  C        14.3582747248       11.4369768906       11.3916197451
  C        13.7928341358       12.5181479648       10.7189486197
  C        14.2539336269        9.6246802236       13.1228503724
  C        14.2526338130        9.6446367740       14.5446889531
  C        13.7426973946       10.7535544795       15.2917671384
  C        22.5133579120        3.2445174263        5.7537629744
  C        23.2312722344        4.3489189838        5.0561125611
  C        24.2284690567        4.0670363262        4.1105913962
  C        24.8586122036        5.1053096599        3.4294401048
  C        24.5075343704        6.4478706283        3.6736994303
  C        23.5389911617        6.7212802774        4.6567206831
  C        22.9040693503        5.6847935636        5.3361997433
  C        25.1141910562        7.5535042755        2.8971787427
  C        25.0804174466        7.5477260089        1.4758062193
  C        24.3747659598        6.5495136330        0.7315130465
  C        38.3039197162       31.9295592776        5.8488145446
  C        37.5775865746       30.8385650017        5.1383830961
  C        36.6179143516       31.1395061890        4.1600131615
  C        36.0048022300       30.1170447535        3.4413139604
  C        36.3369393047       28.7691342330        3.6799600489
  C        37.2671243231       28.4755432163        4.6946135157
  C        37.8843069689       29.4966806102        5.4120137030
  C        35.7378425453       27.6758355217        2.8828997729
  C        35.7681548140       27.6917343998        1.4616888277
  C        36.4728152240       28.6950578383        0.7244992622
  C        25.7003132581        8.6184321584        0.7544708776
  C        25.7161790289        8.6266120966        3.5663810753
  C        38.3289453748       31.9627824910       10.1557123705
  C        37.6071786392       30.8896893120       10.8972139501
  C        36.6801306928       31.1985966022       11.9042229840
  C        36.0705729347       30.1799548591       12.6339046224
  C        36.3739919237       28.8276394885       12.3792945417
  C        37.2783285884       28.5287012191       11.3420092482
  C        37.8902217711       29.5438092321       10.6138750083
  C        35.7674194800       27.7280924385       13.1634001659
  C        35.7832315059       27.7186217019       14.5851356215
  C        36.4798442017       28.7079937592       15.3477693759
  C        46.1355616184       26.6207843876       15.2815487063
  C        46.0880853797       26.5802572102       12.4736586711
  C        22.4598561571        3.2559348916       10.2582108713
  C        23.1511900899        4.3650404231       10.9826433346
  C        24.1519628709        4.0800382420       11.9251645752
  C        24.7772857915        5.1108600985       12.6224075085
  C        24.4220251524        6.4563669532       12.3996732611
  C        23.4442353257        6.7345829314       11.4257685495
  C        22.8141832767        5.7040313138       10.7291036952
  C        25.0517907194        7.5550919467       13.1735791653
  C        25.0487154753        7.5480390515       14.5964798377
  C        24.3579467596        6.5505172065       15.3546843704
  C        26.6237205276       17.8605999521        5.7850056732
  C        25.3163418498       17.8990342275        5.0580615597
  C        25.0629777565       18.8864252821        4.0931952556
  C        23.8492376877       18.9067713773        3.4083151517
  C        22.8532603921       17.9421635709        3.6648497611
  C        23.1048622277       16.9758677702        4.6570075294
  C        24.3202405077       16.9507778662        5.3403007884
  C        21.5792986893       17.9272120509        2.9013711519
  C        21.5779443058       17.8995384045        1.4789038316
  C        22.7828032471       17.7687020367        0.7183682775
  C        34.4436942194       17.1953457623        5.9217255790
  C        35.7345554815       17.1526744242        5.1743658214
  C        35.9416955160       16.1917060084        4.1726409252
  C        37.1210766817       16.1888609613        3.4335266165
  C        38.1261310244       17.1441857825        3.6790765617
  C        37.9224490948       18.0852639958        4.7060370920
  C        36.7392569094       18.0950592986        5.4404766001
  C        39.3805890216       17.1590912728        2.8943364453
  C        39.3772526714       17.1799000243        1.4730800538
  C        38.1708628456       17.3051068026        0.7146553068
  C        20.3314707454       17.9187994598        0.7701959643
  C        20.3540940094       17.9349752485        3.5832432183
  C        34.4787977911       17.2449661773       10.1800867549
  C        35.7818922795       17.1754313905       10.9032335702
  C        35.9982372232       16.1957522512       11.8836148503
  C        37.1833014124       16.1845415806       12.6136004609
  C        38.1799949818       17.1517975746       12.3807837301
  C        37.9705900975       18.1060019492       11.3680456084
  C        36.7829149203       18.1229125569       10.6419582679
  C        39.4258113859       17.1755982217       13.1770132215
  C        39.4004877627       17.1888039434       14.5976577024
  C        38.1819675024       17.3072756871       15.3378449086
  C        35.1548927017       26.6382457998       15.2888839756
  C        35.1733944251       26.6599380868       12.4801201828
  C        26.5717033771       17.8243851617       10.3269541277
  C        25.2579495299       17.8658553702       11.0362214149
  C        24.9904902265       18.8706812180       11.9784463565
  C        23.7725816140       18.8925093534       12.6525212257
  C        22.7921600769       17.9101129085       12.4068503569
  C        23.0539304710       16.9305015909       11.4321080577
  C        24.2729533418       16.9060883321       10.7571129456
  C        21.5278262096       17.8904222160       13.1786702179
  C        21.5517795002       17.8796644740       14.5999778753
  C        22.7698109739       17.7594685692       15.3419903065
  C        14.0466646029       17.8281243382       10.2894909733
  C        15.3506718200       17.8829108354       11.0159393070
  C        15.6083546011       18.8843530499       11.9651639726
  C        16.8171181140       18.9024981725       12.6586658020
  C        17.8026140393       17.9219683294       12.4252700025
  C        17.5496235654       16.9447342943       11.4440403839
  C        16.3403789055       16.9219932605       10.7521386194
  C        19.0718000856       17.9023476402       13.1942797624
  C        19.0706944367       17.8987586866       14.6168634986
  C        17.8637578493       17.8019412576       15.3785270512
  C        46.8071719813       17.2206181082       10.1596615309
  C        45.5197491853       17.1661768400       10.9083526000
  C        45.3131405644       16.1953008416       11.9001976145
  C        44.1333345405       16.1872173659       12.6391707874
  C        43.1319556023       17.1498918198       12.4065697314
  C        43.3359765287       18.1004079491       11.3884508742
  C        44.5164377987       18.1127328965       10.6510280418
  C        41.8795677074       17.1699002870       13.1941057818
  C        41.8841031957       17.1734304593       14.6154858915
  C        43.0925136262       17.2667194864       15.3752177916
  C        20.3175471567       17.9076288942       15.3251349783
  C        20.2959412337       17.8815473635       12.5118019938
  C        46.7865270996       17.2315793449        5.8901314923
  C        45.4827361035       17.1296331814        5.1765726898
  C        45.2619149306       16.1375922072        4.2095248927
  C        44.0736573325       16.1191103891        3.4836741460
  C        43.0781885211       17.0895526766        3.7087826640
  C        43.2884932212       18.0497274337        4.7157159655
  C        44.4778659657       18.0749169138        5.4361872689
  C        41.8336710686       17.1228757545        2.9109573143
  C        41.8608141479       17.1477295534        1.4905845720
  C        43.0814516231       17.2519207528        0.7518211800
  C        46.1532983154       26.6371959537        0.7263058924
  C        46.1625583432       26.6561488515        3.5359381741
  C        14.0458865444       17.8317600835        5.7089034812
  C        15.3674079663       17.9059392435        5.0192667590
  C        15.6413940886       18.9200328660        4.0893901005
  C        16.8709284010       18.9565496046        3.4353980502
  C        17.8541855554       17.9781083008        3.6854690720
  C        17.5872498052       16.9933824819        4.6539695240
  C        16.3597146310       16.9562376578        5.3113056870
  C        19.1214542539       17.9507582725        2.9164281753
  C        19.0965418010       17.9222234671        1.4950549805
  C        17.8765166259       17.8123987207        0.7547292814
  C        28.8067194595       14.0904874634       10.3898565168
  C        28.1894614947       12.9188764547       11.0787923750
  C        28.9138210999       12.1688095698       12.0172037608
  C        28.3115906682       11.0962036975       12.6701489645
  C        26.9710792006       10.7484359838       12.4071563734
  C        26.2682599836       11.4781400554       11.4318165633
  C        26.8680625282       12.5518219234       10.7782703302
  C        26.3021508094        9.6685773232       13.1684744626
  C        26.2948623552        9.6936329113       14.5894200154
  C        26.8011218421       10.8059098853       15.3340863008
  C        32.1787133198       21.2431521308       10.1446912031
  C        32.7724928783       22.4102564582       10.8618839376
  C        32.0282699803       23.0787878810       11.8460154543
  C        32.5994464016       24.1181489758       12.5739084891
  C        33.9299760220       24.5153191987       12.3390188121
  C        34.6560930955       23.8649372914       11.3235020281
  C        34.0874357479       22.8207232480       10.5969161710
  C        34.5612165137       25.5886515841       13.1395260982
  C        34.5597427933       25.5564492403       14.5610126656
  C        34.0529164531       24.4402304916       15.2987096602
  C        25.6882459174        8.6151130015       15.3096421935
  C        25.6639650928        8.6184021727       12.4960774434
  C        32.1070399559       21.2282484528        5.8841043780
  C        32.7029057182       22.3749939782        5.1354365869
  C        31.9687572070       23.0408804438        4.1415645173
  C        32.5532007858       24.0670092840        3.4025438613
  C        33.8848025354       24.4595264074        3.6419726484
  C        34.6018111836       23.8075473330        4.6633352895
  C        34.0228302024       22.7742905588        5.3955969865
  C        34.5262830401       25.5407201823        2.8591508283
  C        34.5406731247       25.5326028471        1.4375745328
  C        34.0426059317       24.4295245013        0.6753860366
  C        40.6243792925       17.1549604985        0.7660209029
  C        40.6027818548       17.1473095898        3.5753410467
  C        28.7486694095       14.0724065806        5.8172695136
  C        28.1383238741       12.9267182167        5.0769442599
  C        28.8717878910       12.2406067630        4.0972190000
  C        28.2940252405       11.1808997593        3.4015838074
  C        26.9664547415       10.7828007478        3.6588561442
  C        26.2498755029       11.4589073987        4.6639657840
  C        26.8264825085       12.5179999877        5.3624740610
  C        26.3248723962        9.6907070052        2.8879014415
  C        26.3073966096        9.7050738371        1.4660442113
  C        26.8044697945       10.8129980074        0.7100742692
  C        18.1354177155        3.1810847516       10.3171107090
  C        17.4061440349        4.2783229301       11.0157115260
  C        16.3903834292        3.9999859805       11.9431915290
  C        15.7427228606        5.0399868140       12.6067125510
  C        16.0947511772        6.3836910750       12.3671017187
  C        17.0842112216        6.6531888312       11.4034109233
  C        17.7332446639        5.6158312414       10.7383290484
  C        15.4704255389        7.4913887572       13.1301432727
  C        15.4856655989        7.4906637063       14.5518553671
  C        16.1872209308        6.4970438152       15.3050218537
  C        42.9459499056       31.8595888051       10.0729476591
  C        43.6463551984       30.7719228419       10.8169106832
  C        44.5918016321       31.0932615003       11.8030491870
  C        45.1975332064       30.0877211953       12.5507073685
  C        44.8712309066       28.7346452575       12.3357418762
  C        43.9455300719       28.4202873243       11.3224192953
  C        43.3366888363       29.4254248609       10.5743950029
  C        45.4887914230       27.6553356044       13.1389288966
  C        45.4928561391       27.6809070447       14.5606220576
  C        44.8057473895       28.6889387777       15.3072473611
  C        14.8566621986        8.5631304714       15.2642223350
  C        14.8751928647        8.5631811325       12.4515495329
  C        42.9465051230       31.9616621421        5.8089681671
  C        43.6917863438       30.8855214213        5.0955127568
  C        44.6562770397       31.1914235559        4.1231160851
  C        45.2778092058       30.1718301108        3.4054027094
  C        44.9541510955       28.8215060416        3.6431508369
  C        44.0208275272       28.5238448342        4.6540803997
  C        43.3925663664       29.5406171652        5.3662492515
  C        45.5631516397       27.7240932788        2.8578976149
  C        45.5333583597       27.7173660809        1.4366019443
  C        44.8269899619       28.7075591038        0.6836414586
  C        35.1464033858       26.6252657468        0.7336181077
  C        35.1359497218       26.5989207778        3.5434031525
  C        18.1485953159        3.2470339257        5.7065589723
  C        17.4300713356        4.3438620305        4.9972637154
  C        16.4146965064        4.0526277897        4.0738604866
  C        15.7664336107        5.0832831964        3.3984722024
  C        16.1212823671        6.4284879861        3.6210931698
  C        17.1128714373        6.7118416691        4.5781361541
  C        17.7605036892        5.6829030234        5.2578999910
  C        15.4907865849        7.5241944541        2.8486616617
  C        15.4966447826        7.5075481444        1.4275326589
  C        16.1934193423        6.5058551410        0.6808356241
  H        10.6723639750       12.4654749313        3.9048605707
  H        11.6946537081       10.5506794337        2.6630061714
  H        15.3919965698       11.1690947747        4.7717931361
  H        14.3515110306       13.0718695990        6.0169581822
  H        13.3761650859       11.6311579440        1.2013470360
  H        50.3228960844       22.7484356148        3.9867805466
  H        49.3197429829       24.6229059436        2.6807721232
  H        45.6423902842       24.1613725930        4.8638970671
  H        46.6633525307       22.2904026743        6.1721296377
  H        47.6298323482       23.5758700611        1.2462496067
  H        14.8723938729        8.5884132501        4.6085632694
  H        50.2872100741       22.7026516844       12.0604670631
  H        49.2692158485       24.5754945600       13.3605499966
  H        45.6107264501       24.1094165474       11.1459702192
  H        46.6528860562       22.2540844526        9.8316738525
  H        47.6077962028       23.5518242186       14.7968957424
  H        40.6640682225       17.1488279746       11.4256180382
  H        48.6870536485       14.0949462790        7.8000148029
  H        10.6813888491       12.4665690828       12.0932421859
  H        11.6897157431       10.5246585489       13.2969323344
  H        15.3937192188       11.1591358592       11.2056929863
  H        14.3651754795       13.0875281774        9.9904262652
  H        13.3758544613       11.6221636494       14.7531348177
  H        47.9302668112       14.2180746319        9.7110067292
  H        47.7800613262       14.3734435062        6.4951280094
  H        49.0845660509       18.5528294610       10.8676303525
  H        10.4162275639       14.1342474750        7.9986971056
  H        24.4871068223        3.0279263596        3.9194965974
  H        25.6315517387        4.8862517202        2.6959428176
  H        23.2607331023        7.7548695824        4.8518719953
  H        22.1339081310        5.8868593888        6.0765972895
  H        23.8156507740        5.7922834513        1.2733701904
  H        36.3775061985       32.1819780833        3.9650631907
  H        35.2600106340       30.3531545547        2.6844750756
  H        37.5309239830       27.4373308068        4.8852808001
  H        38.6283654802       29.2788180588        6.1744651230
  H        37.0389266352       29.4440737538        1.2705242661
  H        25.7561342258        8.6081652443        4.6540059556
  H        36.4585301843       32.2428804527       12.1124923588
  H        35.3463401332       30.4243776732       13.4078396744
  H        37.5239242550       27.4883737682       11.1392328688
  H        38.6114027343       29.3186934619        9.8319977596
  H        37.0524757336       29.4665245084       14.8218638395
  H        46.1096286127       26.5877228703       11.3856257083
  H        44.6683297273       35.1162363076        7.8139343255
  H        24.4307422704        3.0421388547       12.0926324830
  H        25.5573590278        4.8829158098       13.3456471837
  H        23.1584498717        7.7687714279       11.2447222008
  H        22.0435172139        5.9160158524        9.9916002341
  H        23.7853124956        5.7947082042       14.8250128483
  H        44.9539981497       34.3905741023        9.6953021096
  H        44.9018863988       34.2068176572        6.4906843915
  H        40.6661385045       33.2093130242       10.8532143905
  H        23.1504460533        1.9580444587        8.0055235010
  H        25.8318461471       19.6303281388        3.8961775224
  H        23.6566481219       19.6801658491        2.6676982282
  H        22.3488224658       16.2210085472        4.8635591750
  H        24.5250051081       16.1911955014        6.0912295375
  H        23.7220275031       17.6453256861        1.2497458494
  H        35.1637981431       15.4564590930        3.9815761781
  H        37.2804189211       15.4366775396        2.6640354668
  H        38.6913735646       18.8304664053        4.8992480455
  H        36.5640524412       18.8357797723        6.2172823942
  H        37.2311252288       17.4269181182        1.2456523910
  H        20.3610562671       17.9797636132        4.6709209810
  H        35.2186605719       15.4604808224       12.0687892731
  H        37.3512265663       15.4225978599       13.3716342287
  H        38.7351408326       18.8580921822       11.1845165124
  H        36.5976360658       18.8769495184        9.8806256383
  H        37.2508813008       17.4300801486       14.7921726070
  H        35.1407237340       26.6890532317       11.3926548879
  H        28.5070690174       21.0861912802        7.9725800943
  H        25.7484358823       19.6291311396       12.1611926148
  H        23.5635495576       19.6764908233       13.3773020922
  H        22.3050543835       16.1657798355       11.2361724514
  H        24.4908345051       16.1388610117       10.0179095571
  H        23.6991909632       17.6284327424       14.7959711636
  H        28.9923443903       21.7243429027        9.7701253838
  H        29.1570106393       21.7467216815        6.6210857508
  H        32.1332816748       18.5701727303       10.9586247873
  H        27.3996802249       19.0711772078        8.0830404798
  H        14.8509804952       19.6442850991       12.1441821144
  H        17.0130033779       19.6854892425       13.3881140886
  H        18.2998308765       16.1797158188       11.2545558121
  H        16.1338182871       16.1541513867       10.0103719352
  H        16.9209617186       17.6869772910       14.8516588603
  H        46.0939186298       15.4611811929       12.0847286118
  H        43.9718911973       15.4270282274       13.4002703235
  H        42.5699629685       18.8512009778       11.2059911478
  H        44.6922021599       18.8605893424        9.8814184588
  H        44.0346838733       17.3808678165       14.8467616864
  H        20.2899077240       17.9126982745       11.4236970024
  H        46.0371223002       15.3966452795        4.0278745986
  H        43.9041773830       15.3505153269        2.7327391165
  H        42.5237702484       18.8023866580        4.8957823239
  H        44.6635291694       18.8357220689        6.1902582270
  H        44.0152205888       17.3534784252        1.2972439181
  H        46.1995318009       26.6827553098        4.6233783300
  H        52.7412384914       21.0626483252        8.1947015122
  H        14.8809418907       19.6733540951        3.8957332122
  H        17.0823422465       19.7457848081        2.7171133712
  H        18.3378997650       16.2317917051        4.8550059422
  H        16.1383161167       16.1828517506        6.0427616117
  H        16.9431526731       17.7054331199        1.2992422884
  H        52.3227076557       21.6733551817        6.2941852320
  H        52.0133450414       21.7020994516        9.4957012831
  H        49.0679527512       18.6079188549        5.2040313526
  H        13.2478065236       19.0160739114        7.9774550186
  H        29.9484621336       12.4385119785       12.2174664411
  H        28.8747431173       10.5132295920       13.3957906753
  H        25.2327145255       11.2188701805       11.2211166528
  H        26.3237956338       13.1361200209       10.0403151734
  H        27.1613088236       11.6748065793       14.7917701389
  H        31.0073819676       22.7565119223       12.0370178771
  H        32.0174563328       24.6360829927       13.3331002343
  H        35.6859144192       24.1627353555       11.1370903988
  H        34.6533454640       22.2923700524        9.8330681833
  H        33.6934633396       23.5735280360       14.7515667036
  H        25.6905895531        8.5999120285       11.4079692045
  H        30.9397505639       22.7396756135        3.9582713714
  H        31.9769913195       24.5844810015        2.6385273246
  H        35.6324269476       24.1000768090        4.8536010847
  H        34.5811101977       22.2485045203        6.1667233292
  H        33.6753498942       23.5543270846        1.2035248487
  H        40.5945093425       17.1016222877        4.6626706615
  H        32.5148111080       14.1396963718        8.2519352618
  H        29.8950161335       12.5529761886        3.9003444615
  H        28.8712596177       10.6430600511        2.6525536707
  H        25.2223072878       11.1654103237        4.8687063185
  H        26.2702574653       13.0553822308        6.1268928160
  H        27.1658833544       11.6874914292        1.2431662126
  H        33.3067225120       14.2152821014        6.4594278555
  H        33.4091429384       14.4105651950        9.6024695380
  H        32.1268062245       18.5160205498        5.2344972873
  H        30.2146894068       14.1836967933        8.0727052470
  H        16.1182299738        2.9634961289       12.1295359649
  H        14.9532194851        4.8206529592       13.3223276811
  H        17.3667726635        7.6860452224       11.2103854451
  H        18.5153545340        5.8184612439       10.0105516381
  H        16.7538262818        5.7397426712       14.7715174711
  H        44.8280045159       32.1403544831       11.9772817405
  H        45.9373531611       30.3415051762       13.3066871692
  H        43.6829962028       27.3781949595       11.1521925780
  H        42.6001933894       29.1900845668        9.8096149458
  H        44.2304388249       29.4367339772       14.7689330559
  H        14.8514733362        8.5464351528       11.3633276829
  H        44.8997478266       32.2341091372        3.9315940685
  H        46.0246504757       30.4130749331        2.6521068197
  H        43.7640626744       27.4840964030        4.8458032231
  H        42.6462401646       29.3178365613        6.1248697902
  H        44.2685273844       29.4704795071        1.2182233402
  H        35.0940145230       26.6108671164        4.6309021702
  H        36.6050995223       35.1340653459        8.1806591120
  H        16.1434612688        3.0130722814        3.9042581036
  H        14.9739771443        4.8564995764        2.6885155125
  H        17.3965927157        7.7472792869        4.7548614631
  H        18.5435864624        5.8933370471        5.9824444235
  H        16.7648782752        5.7556413716        1.2192836879
  H        36.2783763383       34.4827021977        6.2729724080
  H        36.3808320986       34.2092760934        9.4997100879
  H        40.5807843896       33.2029923578        5.1533436747
  H        17.4707423770        1.9475746873        7.9740743654
  H        28.8861940093       19.1036871824       12.3272599034
  H        29.9489879887       19.7474294002        3.6005995463
  H        32.1667122562       15.9837570201        3.6223303399
  H        31.3247518629       15.4956262642       12.4835294046
  H        27.6648372756       18.1269368446       14.6764159125
  H        29.6049008794       15.1017635056       14.4925037912
  H        31.5590508694       20.0341799644        1.8687690383
  H        32.5957497121       17.5444577343        1.3495411243
  H        28.8234886253       16.7238571467        1.1492024105
  H        32.0932939641       18.5458575022       14.6393721852
  H        18.8532983118        0.8688611671       12.3353792577
  H        40.5279569812       35.2289747407        3.9519814688
  H        42.3246028507       34.4194251699        3.5900789044
  H        22.0876649162        0.6921535490       12.3516575384
  H        11.5968490078       18.7131195367       12.3826831938
  H        52.2649850071       18.4313258644        3.6771200468
  H        49.2557833769       16.4767825384        3.5842759821
  H        10.1501428807       15.7982184360       12.2927994298
  H        50.8502648428       17.6923168950        3.9542683778
  H        10.0461600177       17.3945023149       12.0519418540
  H        20.2145909090        0.0021861581       12.0420124694
  H        39.1836977253       36.1244572106        3.6864736511
 Ni        30.5657463526       17.5466033788        2.9113699825
 Ni        31.1548565277       16.2793159687        0.0008078605
 Ni        30.0111205763       18.9954732641        0.0831606104
 Ni        30.2244688771       17.4054236667       13.1616430183
  O        10.6499570380       14.3650760875        5.4858478965
  O        12.6131749833       14.6575081443        6.5838896967
  O        49.1482270537       16.8458648831        7.9897149841
  O        50.3503174493       20.9358032563        5.6480225881
  O        48.3486066633       20.5933780884        6.6658955218
  O        11.0518134518       17.0538193920        6.5007013803
  O        50.3211001094       20.8816723594       10.4068551025
  O        48.3467867549       20.5868465885        9.3271821919
  O        49.5438646502       18.2484271959       10.0682711746
  O        12.3592002178       18.6246131937        7.9996965039
  O        48.6932677822       14.1485560191        6.7513030977
  O         8.2099050356       14.2103852878        9.3225395665
  O        10.7354046931       14.5067419809       10.6643262417
  O        12.5718409197       14.5828148738        9.3284855390
  O        22.8446204761        2.0430193199        5.4872158055
  O        21.6059355407        3.5924835794        6.5893042067
  O        42.0583568254       34.1375472231        7.9789803449
  O        37.9818843246       33.1374488889        5.5724304148
  O        39.2186443661       31.5763497701        6.6671635667
  O        20.3084385985        1.0396577417        6.5021056453
  O        38.0248630641       33.1862816301       10.4150075504
  O        39.2193262849       31.5839689546        9.3262669132
  O        40.6523400673       33.7694767117       10.0602419792
  O        18.2553611674        1.3763155606        7.9967517915
  O        44.6222511237       35.1005400057        6.7587644414
  O        24.2053988222        0.0000403338        9.3208033020
  O        22.7529270043        2.0579017877       10.5838663863
  O        21.6242826399        3.5959273867        9.3423759218
  O        27.4928073938       18.7522654986        5.5020060689
  O        26.7656920315       16.9309824436        6.6571391172
  O        30.6687710725       19.4099969592        8.0705154183
  O        33.5922004090       16.2739139201        5.6700573415
  O        34.2766127401       18.1681934749        6.7362822477
  O        29.5742907924       17.0638520391        6.5762828065
  O        33.6210111788       16.3283511320       10.4110841259
  O        34.3062796431       18.2470508760        9.4062565288
  O        31.6590914032       18.3105697557       10.1529351433
  O        30.3190646209       15.1491235221        8.0879532999
  O        28.5543663835       21.0349996199        6.9028861448
  O        28.5123108011       20.9583177309        9.4123380336
  O        27.4577762737       18.6785875930       10.6605510908
  O        26.6937179645       16.9294897254        9.4141959965
  O        13.1491323322       18.6927952581       10.5876293611
  O        13.9194026084       16.9161683091        9.4050325560
  O        50.5965745140       19.3503389821        8.0204816281
  O        47.6835748773       16.3270397074       10.4172895973
  O        46.9527818707       18.1761615275        9.3238168146
  O        11.0699559915       17.0154748441        9.4896676024
  O        47.6760810254       16.3355028493        5.6529308433
  O        46.9289956402       18.2358157466        6.6655686546
  O        49.5689661270       18.3177406911        5.9822659022
  O        10.3187127414       15.1000873908        7.9970751795
  O        52.6708065806       21.0278784618        9.2418253668
  O        12.1468958018       20.8911970547        6.6732160066
  O        13.1084443637       18.6135988927        5.3255826931
  O        13.9572044754       16.9870314669        6.6654888589
  O        29.9912079768       14.4387419826       10.7299318933
  O        28.0880260446       14.6539822270        9.4942720762
  O        32.1431645630       16.8515251378        8.0837621662
  O        30.9660225574       20.9521613304       10.4101072056
  O        32.9472654351       20.6039597320        9.3401396280
  O        29.5692898905       17.0726093713        9.5737723027
  O        30.8759919492       20.9509108354        5.6633858391
  O        32.8803984846       20.5868604009        6.6681536326
  O        31.6856786968       18.2565293614        6.0583745708
  O        28.2863141527       18.6755050467        8.0779651110
  O        32.4940178210       14.2115980162        9.3296804824
  O        32.4074469412       14.2114249746        6.8280174716
  O        29.9209994875       14.4416992056        5.4923241668
  O        28.0395294781       14.5895760218        6.7534852132
  O        17.8892479846        1.9666869156       10.6628108917
  O        18.9562427030        3.5271595216        9.4079479103
  O        39.1686763268       34.1389338159        7.9971798219
  O        43.2802449360       33.0589924252       10.3317268773
  O        42.0345995423       31.5064415808        9.2416553456
  O        20.3177911095        1.0369223817        9.4800531149
  O        43.2761029584       33.1826064909        5.5748842412
  O        42.0053063633       31.5841079001        6.5829696572
  O        40.5790773377       33.7751158945        5.9358591512
  O        22.3674025750        1.3847068976        7.9979197720
  O        36.6727421773       35.0998446062        9.2332641482
  O        16.4455903167        0.0642715044        6.6682430395
  O        17.9365002599        2.0433884617        5.3263693060
  O        18.9190628568        3.5931440160        6.6658975167
  O        29.8308452535       18.9621609173        4.1653594703
  O        29.7811398744       18.9061752227       11.9872830453
  O        31.4339227707       16.3433845188        4.1584247169
  O        31.3547545202       16.3422689730       11.9973640919
  O        32.1496116479       16.7059956292        1.5731768578
  O        29.6478524945       17.2168860329        0.9981692443
  O        30.3266272346       15.7445750221       14.4024753562
  O        31.2965764317       18.0226882147       14.8280577840
  O        30.8885335710       19.3430326268        1.7554708732
  O        28.4170789448       18.4577318403       14.1567834450
  O        39.4567708081       35.2437788921        4.0019590854
  O        19.1412241913        0.0044261524       11.9905576065
  O        41.9695537050       35.1726880973        4.0871418629
  O        21.6913071366       -0.0692741800       11.8959639574
  O        51.3651984926       18.6143176340        4.0054257056
  O        10.7511473313       18.7472230485       11.9049471661
  O        50.0801302924       16.4128378844        4.0916933309
  O         9.5243599351       16.4831330404       11.9912247323
 Zr         9.2973304799       16.0526508053        6.1825100179
 Zr        49.8366580601       16.0065794972        9.7462918355
 Zr        22.0734649533        0.0303114400        6.1888730172
 Zr        42.4610879165       35.1538312855        9.8010459450
 Zr        29.5954124397       19.1005139267        6.2870696680
 Zr        29.5900248286       19.1789606302        9.8449028323
 Zr        11.0384628712       19.0518496792        9.8277486606
 Zr        11.0443757268       19.1547571717        6.2509017003
 Zr        31.3515167854       16.0971841120        9.8554193189
 Zr        31.3915757455       16.0075956762        6.3063384384
 Zr        18.6013501683       -0.0008062393        9.7632196107
 Zr        18.5066104913       -0.0073868540        6.2138132886
 Zr        12.3024521105       16.3235281352        7.9902611214
 Zr        48.6174210497       18.8333017554        8.0102490463
 Zr        20.3154564542        2.4739311712        7.9902651550
 Zr        40.6439439843       32.6876111953        7.9783369853
 Zr        28.3392402289       16.3397159915        8.0735718538
 Zr        32.6338061566       18.8414118165        8.0590095397
  H        28.7274459999       19.3387649189       14.5807485631
  H        29.1734690362       16.7258616746        3.2961776498
  H        29.6966131259       20.3007536697       -0.6715636680
  H        30.9905299968       14.9846279194        0.5951928736
