     574
 i =      141, E =     -4778.8340379730
  C        11.8587189847       14.0534565644        5.7415776093
  C        12.4562017336       12.8905517266        5.0232990717
  C        11.7044842091       12.1715284853        4.0817246180
  C        12.2808448323       11.1093213517        3.3893739342
  C        13.6214342749       10.7395434230        3.6170694760
  C        14.3546519343       11.4432126561        4.5904297660
  C        13.7817564011       12.5081779407        5.2819390412
  C        14.2609915143        9.6489285012        2.8436292970
  C        14.2562465261        9.6568194133        1.4219320368
  C        13.7429359897       10.7588785674        0.6680317282
  C        49.1268489116       21.2331205024        5.8794903773
  C        48.5501876542       22.4012585418        5.1526308599
  C        49.3001584703       23.0685061604        4.1715451175
  C        48.7332140493       24.1077297033        3.4384636621
  C        47.4026385892       24.5092839065        3.6670341664
  C        46.6717522942       23.8603957497        4.6805810043
  C        47.2341676120       22.8153997047        5.4098217670
  C        46.7723790176       25.5870117880        2.8698126833
  C        46.7612729665       25.5573438739        1.4480543930
  C        47.2610998864       24.4421837170        0.7045859017
  C        14.8603145075        8.5705692164        0.7086479957
  C        14.8918538330        8.5970315089        3.5202829135
  C        49.1132378432       21.2034311292       10.1454084383
  C        48.5278761143       22.3647983066       10.8726098035
  C        49.2670536195       23.0255657229       11.8655221624
  C        48.6906814541       24.0600925709       12.5970014451
  C        47.3602703974       24.4568333878       12.3587151291
  C        46.6398595770       23.8118508465       11.3352404102
  C        47.2134767453       22.7759692383       10.6034757990
  C        46.7217465208       25.5317612080       13.1497412013
  C        46.7333672635       25.5280912618       14.5714432646
  C        47.2488552009       24.4288988320       15.3278231228
  C        40.6346063618       17.1592572287       15.3225218715
  C        40.6535807287       17.1785315565       12.5136435286
  C        11.8830514739       14.0865032508       10.2855300875
  C        12.4723340197       12.9106989565       10.9897262235
  C        11.7148005037       12.1774477056       11.9157986894
  C        12.2813730807       11.0949690507       12.5841854468
  C        13.6202318616       10.7213242587       12.3524163674
  C        14.3582664668       11.4369526038       11.3916990461
  C        13.7928249807       12.5181272174       10.7190346736
  C        14.2538681754        9.6246188368       13.1228589994
  C        14.2525063594        9.6445284162       14.5446960149
  C        13.7424018459       10.7533620380       15.2917789540
  C        22.5129027555        3.2445056331        5.7532696624
  C        23.2299762111        4.3483880807        5.0544794305
  C        24.2264490028        4.0659237432        4.1083303507
  C        24.8563198277        5.1036877280        3.4263223348
  C        24.5058514885        6.4464635359        3.6703939250
  C        23.5378057783        6.7204922979        4.6537870502
  C        22.9032438751        5.6844659208        5.3342309113
  C        25.1139825583        7.5512852239        2.8940957628
  C        25.0842237728        7.5445925948        1.4726144220
  C        24.3788330396        6.5469558742        0.7273913637
  C        38.2994469204       31.9286130797        5.8516921347
  C        37.5608051116       30.8394628751        5.1486248079
  C        36.5968565688       31.1454703381        4.1756768778
  C        35.9704598510       30.1267146482        3.4629491631
  C        36.2924868265       28.7761718197        3.7009775968
  C        37.2258377725       28.4775881190        4.7115010799
  C        37.8563195774       29.4952865967        5.4234359766
  C        35.6853788908       27.6871487759        2.9017852217
  C        35.7250064151       27.7022953734        1.4801987208
  C        36.4389471146       28.7022009823        0.7469830155
  C        25.7085379548        8.6133296487        0.7520110637
  C        25.7141576205        8.6248270218        3.5640202708
  C        38.3309102997       31.9617842707       10.1593965053
  C        37.6147722784       30.8885137146       10.9084071882
  C        36.6831199962       31.1977706419       11.9112727495
  C        36.0746372854       30.1803082077       12.6441425885
  C        36.3827334646       28.8273197830       12.3976996748
  C        37.2947054478       28.5278845322       11.3670195238
  C        37.9051618445       29.5419082387       10.6354723166
  C        35.7691524439       27.7289070043       13.1797730035
  C        35.7682464969       27.7233976765       14.6021423674
  C        36.4581070446       28.7132971342       15.3703360220
  C        46.1354335429       26.6207832842       15.2815595562
  C        46.0878391462       26.5801458699       12.4736823087
  C        22.4609612448        3.2558496718       10.2579200023
  C        23.1550211747        4.3637856658       10.9811617412
  C        24.1565276678        4.0766980636       11.9223632277
  C        24.7848006304        5.1061212817       12.6189139339
  C        24.4323442667        6.4524101430       12.3965122051
  C        23.4538848782        6.7326339095       11.4238471912
  C        22.8208061970        5.7035100010       10.7277718151
  C        25.0646162762        7.5495261043       13.1706209940
  C        25.0594044612        7.5430243667       14.5934415765
  C        24.3651942889        6.5471272758       15.3505434256
  C        26.6225706522       17.8616317916        5.7857582855
  C        25.3159816386       17.9012412624        5.0563833666
  C        25.0564679182       18.8943573861        4.0983544589
  C        23.8440849047       18.9108320717        3.4106018914
  C        22.8531935028       17.9392306607        3.6604306364
  C        23.1099057805       16.9684547930        4.6470396546
  C        24.3244292038       16.9456374308        5.3316555809
  C        21.5790316600       17.9241948044        2.8972521262
  C        21.5783753690       17.8988277960        1.4748410183
  C        22.7831409547       17.7711590061        0.7136216338
  C        34.4403169864       17.1932695175        5.9217288849
  C        35.7322756309       17.1502444733        5.1748383999
  C        35.9358633110       16.1917026346        4.1699424660
  C        37.1154012170       16.1868357704        3.4306372404
  C        38.1248275464       17.1368431781        3.6803583636
  C        37.9246753395       18.0746354716        4.7110141445
  C        36.7413925231       18.0862713207        5.4455891579
  C        39.3794715527       17.1508252633        2.8955938559
  C        39.3762601070       17.1745549063        1.4743530563
  C        38.1701006153       17.3023868106        0.7162446340
  C        20.3316476824       17.9173481393        0.7666716756
  C        20.3543593659       17.9296178187        3.5800901547
  C        34.4719020139       17.2451762220       10.1858080856
  C        35.7745177893       17.1718407984       10.9093505018
  C        35.9857252613       16.1995300512       11.8982299306
  C        37.1726383994       16.1863144090       12.6255258437
  C        38.1753971906       17.1451889818       12.3835943553
  C        37.9703656543       18.0918061869       11.3626591732
  C        36.7813994120       18.1108368754       10.6390855997
  C        39.4224523207       17.1693262003       13.1779356724
  C        39.3982335290       17.1846331273       14.5986894656
  C        38.1803651085       17.3057586876       15.3395535282
  C        35.1284941606       26.6469981029       15.3023702747
  C        35.1825289986       26.6581767472       12.4929740289
  C        26.5721483993       17.8271051623       10.3238239877
  C        25.2564500411       17.8693259125       11.0306129602
  C        24.9896609299       18.8746620835       11.9722607697
  C        23.7720510015       18.8966856383       12.6470065156
  C        22.7917114557       17.9143011636       12.4017386888
  C        23.0526471620       16.9341732133       11.4273467566
  C        24.2713230327       16.9098049586       10.7516642824
  C        21.5280123374       17.8932112884       13.1747093757
  C        21.5519160297       17.8808996977       14.5960359026
  C        22.7705485970       17.7620409109       15.3372246145
  C        14.0464604600       17.8282699232       10.2889630872
  C        15.3506349757       17.8833855211       11.0148554194
  C        15.6079009007       18.8843872795       11.9645831985
  C        16.8170215259       18.9029347301       12.6573607132
  C        17.8024533734       17.9226270866       12.4231108010
  C        17.5501425643       16.9460959594       11.4410881994
  C        16.3404484291       16.9228810425       10.7501357451
  C        19.0719019321       17.9031910839       13.1913080486
  C        19.0708722919       17.8974995382       14.6137408108
  C        17.8641737839       17.7991613146       15.3756177380
  C        46.8065708144       17.2204799628       10.1599580567
  C        45.5184991475       17.1649540159       10.9080798477
  C        45.3122064132       16.1939412563       11.8999745751
  C        44.1319298685       16.1843228762       12.6383478071
  C        43.1293748483       17.1458966876       12.4058017021
  C        43.3330717467       18.0965929868       11.3876738344
  C        44.5140638972       18.1104350032       10.6508245129
  C        41.8767497483       17.1650146133       13.1937030700
  C        41.8818906974       17.1689367360       14.6152731309
  C        43.0904259094       17.2621087823       15.3748415915
  C        20.3177732343       17.9073796565       15.3216309427
  C        20.2958275260       17.8844575957       12.5085002745
  C        46.7861076485       17.2311798981        5.8903106193
  C        45.4823714683       17.1279587653        5.1767771616
  C        45.2630014822       16.1359507659        4.2093046982
  C        44.0747338800       16.1157554925        3.4835097367
  C        43.0775264046       17.0842974158        3.7090962435
  C        43.2864025638       18.0443133145        4.7165661165
  C        44.4758463477       18.0713328643        5.4369604671
  C        41.8328148678       17.1159594443        2.9112846755
  C        41.8596737993       17.1418612359        1.4908078022
  C        43.0799219446       17.2469230840        0.7515116815
  C        46.1531195305       26.6371581006        0.7263221577
  C        46.1624611530       26.6561333754        3.5359684139
  C        14.0458839024       17.8313603691        5.7085028896
  C        15.3674423762       17.9045501250        5.0181018129
  C        15.6418544312       18.9177876325        4.0874047966
  C        16.8712668262       18.9532859729        3.4329697514
  C        17.8540741373       17.9742638994        3.6828269326
  C        17.5866690962       16.9902757423        4.6519816331
  C        16.3592515626       16.9542015566        5.3097775634
  C        19.1214656098       17.9469559100        2.9136058507
  C        19.0968562066       17.9192017476        1.4920800315
  C        17.8768086701       17.8087114969        0.7518460478
  C        28.8103521317       14.0899072535       10.3901125847
  C        28.1981386510       12.9140169890       11.0750473499
  C        28.9247764783       12.1676893844       12.0146107047
  C        28.3261463038       11.0930195196       12.6675082231
  C        26.9869133560       10.7408355396       12.4044436829
  C        26.2821017100       11.4669406687       11.4277771518
  C        26.8782345117       12.5423323597       10.7739818797
  C        26.3185853895        9.6609696530       13.1663312460
  C        26.3103920282        9.6859899827       14.5874029396
  C        26.8178612510       10.7975010752       15.3323897436
  C        32.1810768637       21.2419717129       10.1424437158
  C        32.7775491362       22.4083519888       10.8633262366
  C        32.0245251494       23.0943373617       11.8288201262
  C        32.5939716211       24.1336573740       12.5586984837
  C        33.9328208825       24.5151531989       12.3448017929
  C        34.6690913790       23.8473705941       11.3480790932
  C        34.1014775452       22.8028456168       10.6198129774
  C        34.5591806405       25.5905360568       13.1484110982
  C        34.5389928338       25.5647371580       14.5701553939
  C        34.0182564282       24.4534930083       15.3058629633
  C        25.6998698826        8.6091900194       15.3071183697
  C        25.6793727192        8.6115288867       12.4936346717
  C        32.0821968927       21.2059410234        5.8804116677
  C        32.6549066952       22.3675675621        5.1344296751
  C        31.9171100120       23.0294066246        4.1407488074
  C        32.4925356500       24.0658831603        3.4072760706
  C        33.8193191249       24.4734383445        3.6505795517
  C        34.5383982690       23.8265108328        4.6739487948
  C        33.9685056671       22.7851860343        5.4013422865
  C        34.4606998896       25.5579368530        2.8701974662
  C        34.4867793510       25.5489056491        1.4482474225
  C        33.9914762946       24.4468429041        0.6824333610
  C        40.6230129520       17.1495692492        0.7666148630
  C        40.6020414585       17.1388903445        3.5760452020
  C        28.7489259747       14.0671646867        5.8202201430
  C        28.1397760209       12.9191519971        5.0826277264
  C        28.8741714946       12.2312386811        4.1047472874
  C        28.2964694986       11.1732974374        3.4068498932
  C        26.9671822658       10.7783062741        3.6591896744
  C        26.2498140373       11.4548266861        4.6636121710
  C        26.8263446686       12.5125647002        5.3643718373
  C        26.3267563668        9.6870514473        2.8862695159
  C        26.3149595243        9.7000453911        1.4641966526
  C        26.8181575839       10.8053445140        0.7084405728
  C        18.1351992127        3.1809640736       10.3169186990
  C        17.4064619750        4.2782836943       11.0159535141
  C        16.3904054979        3.9999963260       11.9431245214
  C        15.7427714153        5.0399722935       12.6067097629
  C        16.0948244371        6.3836732479       12.3671158263
  C        17.0843937464        6.6531815948       11.4035481385
  C        17.7333767097        5.6158076265       10.7384343087
  C        15.4704528782        7.4913579920       13.1301494561
  C        15.4857358827        7.4906675098       14.5518592218
  C        16.1873319307        6.4970928227       15.3050414630
  C        42.9458096700       31.8596869637       10.0730314401
  C        43.6463245026       30.7718918786       10.8167637541
  C        44.5915600742       31.0932154860       11.8031083339
  C        45.1973724101       30.0876507462       12.5506744420
  C        44.8709274043       28.7345909647       12.3358152087
  C        43.9455093338       28.4202320485       11.3222263767
  C        43.3366035019       29.4253973029       10.5742806319
  C        45.4886569518       27.6553117632       13.1389232869
  C        45.4926446867       27.6808551277       14.5606250927
  C        44.8056874217       28.6889715190       15.3072795310
  C        14.8565429021        8.5630232901       15.2642207440
  C        14.8751825957        8.5631380185       12.4515754137
  C        42.9466988415       31.9615785493        5.8093708232
  C        43.6915699269       30.8855221514        5.0952998918
  C        44.6564358150       31.1914278946        4.1232543461
  C        45.2777103888       30.1718430092        3.4052890252
  C        44.9542283385       28.8215233481        3.6433203527
  C        44.0207099435       28.5238342978        4.6540729957
  C        43.3927191990       29.5406220905        5.3664630907
  C        45.5630567491       27.7240963312        2.8579489503
  C        45.5332971188       27.7173770170        1.4366489607
  C        44.8269649909       28.7075884679        0.6836756396
  C        35.1042571265       26.6378085378        0.7476490456
  C        35.0714706073       26.6141670337        3.5581094013
  C        18.1480168741        3.2470250875        5.7071414191
  C        17.4306113102        4.3438546315        4.9967596377
  C        16.4146255950        4.0525800930        4.0740463408
  C        15.7666913617        5.0832201140        3.3983276450
  C        16.1211280962        6.4284839389        3.6212351649
  C        17.1130131163        6.7117656862        4.5779885718
  C        17.7603789380        5.6829058369        5.2581223638
  C        15.4907861963        7.5241849808        2.8486586954
  C        15.4966318554        7.5075229629        1.4275268651
  C        16.1935331067        6.5058994763        0.6808540364
  H        10.6723178554       12.4655566929        3.9047685877
  H        11.6945171460       10.5507473467        2.6629394678
  H        15.3917044627       11.1686599605        4.7721021147
  H        14.3512784057       13.0714367506        6.0172957591
  H        13.3757660388       11.6309352016        1.2013402641
  H        50.3229072612       22.7485559607        3.9868640850
  H        49.3196921341       24.6230318591        2.6809030291
  H        45.6422536657       24.1611467086        4.8637380415
  H        46.6631975234       22.2901367229        6.1719322566
  H        47.6297174231       23.5758453364        1.2462811445
  H        14.8723067036        8.5882919754        4.6085930643
  H        50.2871308856       22.7027973055       12.0604083741
  H        49.2690661905       24.5756356080       13.3604535477
  H        45.6104674891       24.1091052881       11.1461337354
  H        46.6526873358       22.2537678548        9.8319183633
  H        47.6076101358       23.5517706115       14.7969216725
  H        40.6602513715       17.1404788523       11.4260319377
  H        48.6869656545       14.0948696620        7.7999851197
  H        10.6812650917       12.4663758558       12.0930675503
  H        11.6895396388       10.5244593010       13.2967550734
  H        15.3937382198       11.1591612363       11.2058351546
  H        14.3651915978       13.0875265334        9.9905523639
  H        13.3754820581       11.6219395618       14.7531508401
  H        47.9302667543       14.2176732369        9.7110952094
  H        47.7799730959       14.3728706150        6.4949967593
  H        49.0843409453       18.5527041211       10.8675819173
  H        10.4160858733       14.1342617282        7.9986733905
  H        24.4848252800        3.0267004285        3.9175737187
  H        25.6290049539        4.8841968173        2.6927084337
  H        23.2600733634        7.7542335743        4.8488407177
  H        22.1336853116        5.8870712954        6.0750952294
  H        23.8169845411        5.7911911630        1.2684364978
  H        36.3639712097       32.1893882101        3.9793607474
  H        35.2238067809       30.3683800767        2.7096562306
  H        37.4823624308       27.4377118153        4.9032160047
  H        38.6027143792       29.2718137534        6.1820895812
  H        37.0020454514       29.4508980273        1.2965104873
  H        25.7507620700        8.6075308401        4.6517715111
  H        36.4557515708       32.2420152352       12.1135119073
  H        35.3458190421       30.4266727015       13.4131701560
  H        37.5459725676       27.4877317283       11.1702551222
  H        38.6304592189       29.3148690376        9.8579056614
  H        37.0372453463       29.4699130135       14.8486620041
  H        46.1093700257       26.5876235091       11.3856492960
  H        44.6684752204       35.1162832953        7.8139214737
  H        24.4332102207        3.0382048839       12.0895173324
  H        25.5651988070        4.8764606848       13.3412585271
  H        23.1703990183        7.7674982185       11.2430809456
  H        22.0497065161        5.9173253481        9.9912444859
  H        23.7921487230        5.7922161632       14.8200439560
  H        44.9544138203       34.3908589016        9.6954470552
  H        44.9023900128       34.2070440284        6.4906006190
  H        40.6667207703       33.2096729194       10.8533845882
  H        23.1504569618        1.9581275789        8.0053494526
  H        25.8167796625       19.6497276868        3.9116335781
  H        23.6473560056       19.6879407131        2.6749500631
  H        22.3573695695       16.2088309205        4.8489062241
  H        24.5326939283       16.1826101908        6.0781803490
  H        23.7229788005       17.6493550815        1.2440078860
  H        35.1533473924       15.4614055310        3.9776654884
  H        37.2722450050       15.4361171424        2.6590996182
  H        38.6969479192       18.8154605903        4.9077643074
  H        36.5690988258       18.8246003735        6.2253597744
  H        37.2312959254       17.4258599604        1.2482855272
  H        20.3616371540       17.9730564441        4.6678363159
  H        35.2024776500       15.4706602809       12.0932383190
  H        37.3359558081       15.4293251354       13.3894805529
  H        38.7390954073       18.8377212353       11.1715562199
  H        36.5999384879       18.8592558006        9.8713303992
  H        37.2492166369       17.4304965348       14.7945071513
  H        35.1637467520       26.6831307574       11.4050593411
  H        28.5052922798       21.0779206088        7.9683357843
  H        25.7497838903       19.6308049372       12.1563049128
  H        23.5639488822       19.6804139658       13.3723171163
  H        22.3040637346       16.1688598835       11.2326209026
  H        24.4897707234       16.1412956330       10.0139930339
  H        23.7005390545       17.6332352141       14.7914458879
  H        29.0032027443       21.7230621031        9.7586807065
  H        29.1654037342       21.7395268903        6.6274905487
  H        32.0877261343       18.5620061240       10.9860351165
  H        27.4010177983       19.0679636445        8.0797071220
  H        14.8502066451       19.6438839112       12.1440987051
  H        17.0129123614       19.6853319582       13.3874469138
  H        18.3006632431       16.1815191260       11.2510548603
  H        16.1337493635       16.1555223753       10.0079184669
  H        16.9214948382       17.6833788751       14.8486713830
  H        46.0934099831       15.4603570442       12.0848493154
  H        43.9712033730       15.4237719985       13.3992454816
  H        42.5664727318       18.8466886813       11.2047576369
  H        44.6890143619       18.8585676072        9.8812773149
  H        44.0324254460       17.3766775706       14.8461660259
  H        20.2893186039       17.9167875846       11.4204487106
  H        46.0394068344       15.3963639242        4.0272515938
  H        43.9066168551       15.3471175877        2.7323143480
  H        42.5203726381       18.7955178771        4.8971359969
  H        44.6601316689       18.8321364115        6.1913897405
  H        44.0139914362       17.3482375406        1.2964760671
  H        46.1994720515       26.6827588393        4.6234081241
  H        52.7412181722       21.0626672774        8.1946924331
  H        14.8818693123       19.6715728245        3.8936555730
  H        17.0825839111       19.7420604435        2.7141389896
  H        18.3366426713       16.2279990467        4.8529641118
  H        16.1378070890       16.1812205041        6.0416554574
  H        16.9435742745       17.7006904358        1.2963520019
  H        52.3225343843       21.6732512509        6.2942164963
  H        52.0133080709       21.7020970154        9.4956776239
  H        49.0676478231       18.6077833702        5.2040686211
  H        13.2476337774       19.0161301091        7.9772800892
  H        29.9578097062       12.4421552369       12.2168340157
  H        28.8910038869       10.5133026231       13.3943827043
  H        25.2473848010       11.2044499445       11.2171546311
  H        26.3321381332       13.1246388528       10.0358769759
  H        27.1821319232       11.6655278228       14.7912482966
  H        30.9956644980       22.7872446231       12.0010009469
  H        32.0037998327       24.6652998247       13.3020408052
  H        35.7053545981       24.1319752973       11.1770884323
  H        34.6754133627       22.2621743572        9.8705925019
  H        33.6618927030       23.5870765177       14.7561471486
  H        25.7067382134        8.5931997271       11.4055504800
  H        30.8931284336       22.7159384985        3.9500511499
  H        31.9122742758       24.5792255992        2.6434748843
  H        35.5650641262       24.1293234010        4.8694296889
  H        34.5304322651       22.2647020876        6.1732910871
  H        33.6152036965       23.5746208967        1.2091824859
  H        40.5942319773       17.0914518044        4.6633034375
  H        32.5061809610       14.1490942932        8.2529426333
  H        29.8992025013       12.5388416505        3.9109127866
  H        28.8748447860       10.6351404594        2.6589868060
  H        25.2213148689       11.1628526932        4.8658078352
  H        26.2693354685       13.0496856272        6.1284317569
  H        27.1812235454       11.6797156101        1.2405882824
  H        33.3091065830       14.2208757113        6.4666000685
  H        33.4095484845       14.4087591631        9.5969114744
  H        32.1200543085       18.4971322158        5.1869478153
  H        30.2180033286       14.1915092265        8.0794161523
  H        16.1182656254        2.9635171747       12.1295244727
  H        14.9532183346        4.8206689227       13.3222805191
  H        17.3670540679        7.6860207023       11.2105862293
  H        18.5156617142        5.8184293855       10.0108428993
  H        16.7540626776        5.7398948248       14.7715273666
  H        44.8277944184       32.1403058272       11.9773110737
  H        45.9370857976       30.3414971285       13.3067419029
  H        43.6830223845       27.3781277758       11.1519916100
  H        42.6003245834       29.1900437393        9.8092893483
  H        44.2304510516       29.4368274710       14.7689720944
  H        14.8515538878        8.5464036227       11.3633529750
  H        44.8997211315       32.2341452555        3.9315998507
  H        46.0246834705       30.4130939492        2.6521196622
  H        43.7640721428       27.4840770738        4.8459552992
  H        42.6462485212       29.3178847696        6.1249527979
  H        44.2686149409       29.4705961941        1.2182533025
  H        35.0240757866       26.6259997674        4.6454271682
  H        36.6053312108       35.1340759974        8.1806845783
  H        16.1436713980        3.0130038623        3.9041209090
  H        14.9741205558        4.8564732599        2.6884933181
  H        17.3965860617        7.7472062407        4.7548958219
  H        18.5437332029        5.8933262124        5.9823748766
  H        16.7651117036        5.7557722026        1.2192958167
  H        36.2788877495       34.4824151809        6.2730552428
  H        36.3813017018       34.2089717237        9.4993664336
  H        40.5798071265       33.2023806784        5.1536057757
  H        17.4710780149        1.9474881359        7.9741005292
  H        29.1152146027       19.4099840661       12.5022262372
  H        29.7318863128       19.7354208581        3.5992413765
  H        31.7357868596       15.7404694681        3.5936874909
  H        31.5323636733       15.6277198929       12.6029758883
  H        27.9367323586       18.3155381702       14.6562773309
  H        29.4634094027       15.1538760291       14.4116800191
  H        31.5467709181       19.8262526760        1.3935621478
  H        32.8599958637       17.1188864363        1.4892637619
  H        28.2578068259       16.9686671240        2.4375818564
  H        32.2556917476       18.2960777342       14.5155075579
  H        18.8543414244        0.8692661500       12.3352934354
  H        40.5282109653       35.2288312392        3.9520016044
  H        42.3246547674       34.4193868041        3.5899985046
  H        22.0878062393        0.6922953365       12.3515038649
  H        11.5969792420       18.7131404783       12.3825514417
  H        52.2649167668       18.4310477532        3.6771826266
  H        49.2552284363       16.4768599791        3.5844033787
  H        10.1507630061       15.7980266845       12.2924881957
  H        50.8500255234       17.6923759268        3.9542833372
  H        10.0464787021       17.3944371053       12.0519505604
  H        20.2159312024        0.0025630799       12.0418047950
  H        39.1839657449       36.1245078608        3.6864786675
 Ni        30.7318010976       17.7022437277        2.7500342768
 Ni        31.2776017173       16.1132836121       -0.0903444795
 Ni        30.0128312500       18.8468386113       -0.2455750063
 Ni        30.0989222027       17.4707418413       13.2434738087
  O        10.6499329110       14.3650476841        5.4857564392
  O        12.6132478945       14.6574968311        6.5838420328
  O        49.1480961562       16.8457988949        7.9897310082
  O        50.3503596643       20.9358474986        5.6481211252
  O        48.3485382723       20.5935651396        6.6659510603
  O        11.0517264783       17.0539291800        6.5007568425
  O        50.3210737760       20.8817223999       10.4068274779
  O        48.3467993080       20.5868147200        9.3271347861
  O        49.5437462651       18.2484325359       10.0682416699
  O        12.3590230892       18.6247033889        8.0000715276
  O        48.6932831972       14.1485399601        6.7512915605
  O         8.2098933855       14.2104536695        9.3225679510
  O        10.7354147591       14.5067363906       10.6642996275
  O        12.5716998918       14.5830753173        9.3285091152
  O        22.8446389480        2.0429475700        5.4871791726
  O        21.6057813351        3.5921369126        6.5894173170
  O        42.0582446211       34.1373275871        7.9788851942
  O        37.9810596932       33.1366976368        5.5722730993
  O        39.2175735482       31.5751257530        6.6662073977
  O        20.3084097807        1.0397057297        6.5021373833
  O        38.0243999319       33.1853881589       10.4157389577
  O        39.2187029687       31.5826883405        9.3271924391
  O        40.6522882775       33.7693622494       10.0600993305
  O        18.2556255043        1.3761258929        7.9969806122
  O        44.6223470629       35.1006011370        6.7587635995
  O        24.2054000878        0.0000011653        9.3207736958
  O        22.7528349420        2.0574399527       10.5835429873
  O        21.6245510432        3.5960041215        9.3427589819
  O        27.4959885052       18.7519729491        5.4950044639
  O        26.7640872369       16.9331230998        6.6546622791
  O        30.6658662338       19.4041201876        8.0635247028
  O        33.5893035758       16.2740451834        5.6694582533
  O        34.2756033442       18.1686311162        6.7356097063
  O        29.5720200268       17.0633539725        6.5774817583
  O        33.6121213591       16.3273600455       10.4158181682
  O        34.3070941969       18.2444760197        9.4078326540
  O        31.6537767739       18.3126372352       10.1541170531
  O        30.3228833038       15.1569382178        8.0905709843
  O        28.5533788753       21.0326377318        6.8997927464
  O        28.5134475053       20.9579988961        9.4120116535
  O        27.4577394217       18.6780082224       10.6591941428
  O        26.6955376119       16.9282833394        9.4128925255
  O        13.1489285261       18.6927007131       10.5875266341
  O        13.9187124086       16.9161296043        9.4048492226
  O        50.5965648894       19.3503578660        8.0203946344
  O        47.6834070876       16.3271342466       10.4172881163
  O        46.9523472491       18.1760548929        9.3240566240
  O        11.0700137566       17.0155172775        9.4895622312
  O        47.6761509868       16.3355836564        5.6529544577
  O        46.9286387655       18.2358359299        6.6653240492
  O        49.5687014105       18.3177605028        5.9823369977
  O        10.3185433974       15.1000991551        7.9974401982
  O        52.6705846424       21.0276902934        9.2417925149
  O        12.1467379002       20.8910983398        6.6732433786
  O        13.1086760963       18.6135569324        5.3254466439
  O        13.9574696516       16.9869742157        6.6653571716
  O        29.9933075968       14.4405348366       10.7300682593
  O        28.0882041793       14.6529657110        9.4953166310
  O        32.1353229937       16.8527072590        8.0873134009
  O        30.9676422765       20.9547396863       10.4069741577
  O        32.9478916146       20.6011704120        9.3382756160
  O        29.5689328371       17.0740014774        9.5787195877
  O        30.8547243405       20.8967583750        5.6579318779
  O        32.8717761883       20.5863972903        6.6642477849
  O        31.6837407479       18.2530893666        6.0173162944
  O        28.2882953790       18.6739895961        8.0761533847
  O        32.4916742479       14.2151461436        9.3306811921
  O        32.4058633548       14.2140474397        6.8252227634
  O        29.9204366596       14.4373786211        5.4920536907
  O        28.0381427784       14.5889406870        6.7527625215
  O        17.8895271425        1.9665100363       10.6628947579
  O        18.9563344100        3.5273309428        9.4081769422
  O        39.1685816847       34.1389970110        7.9972619584
  O        43.2801339403       33.0591384422       10.3314014864
  O        42.0345805849       31.5062278774        9.2416847805
  O        20.3177303556        1.0368769750        9.4799413462
  O        43.2761334397       33.1823642203        5.5745636780
  O        42.0047836570       31.5851744307        6.5831186872
  O        40.5793685608       33.7748958889        5.9358398072
  O        22.3674883373        1.3846467255        7.9983338546
  O        36.6729866945       35.0997317422        9.2333216095
  O        16.4455714394        0.0643357517        6.6682862982
  O        17.9367898136        2.0435605933        5.3257622814
  O        18.9194251872        3.5933020254        6.6656146240
  O        29.8653291396       18.9000877145        4.0792989085
  O        29.8247265366       18.9745434375       11.9890373226
  O        31.3041866069       16.4093519309        4.1560838988
  O        31.3028842113       16.4116337045       12.0714945338
  O        31.9925356060       16.6962201819        1.5844715112
  O        29.0616006128       16.6358605247        1.9972445702
  O        29.6512670040       16.0503436647       14.7330621834
  O        31.4046631212       17.8852264260       14.7413192415
  O        30.7054757889       19.3417686177        1.4108409025
  O        28.7639480547       18.7539152430       14.3918940521
  O        39.4568636997       35.2437449476        4.0018903854
  O        19.1422318001        0.0049115170       11.9902740877
  O        41.9695156170       35.1726485721        4.0869973390
  O        21.6913648837       -0.0692317043       11.8960247394
  O        51.3651503196       18.6142754748        4.0053876233
  O        10.7512577985       18.7471737063       11.9048708111
  O        50.0796969337       16.4128195712        4.0916205644
  O         9.5248903712       16.4829921315       11.9912273251
 Zr         9.2971863403       16.0526164466        6.1824530412
 Zr        49.8364673044       16.0066379474        9.7464716095
 Zr        22.0737208404        0.0306641010        6.1887342760
 Zr        42.4611610748       35.1540251304        9.8010229053
 Zr        29.6046486325       19.0837091728        6.2807280863
 Zr        29.5814228699       19.1788032326        9.8602482280
 Zr        11.0380733858       19.0518367272        9.8277689267
 Zr        11.0441508637       19.1546390934        6.2509302748
 Zr        31.3468228639       16.1024259090        9.8919606932
 Zr        31.3892994935       16.0127738357        6.2874639523
 Zr        18.6016307894       -0.0008390808        9.7635380365
 Zr        18.5068702954       -0.0072368132        6.2137440552
 Zr        12.3021025363       16.3233842266        7.9900382857
 Zr        48.6170950860       18.8331942011        8.0103096767
 Zr        20.3157471903        2.4743735100        7.9904683606
 Zr        40.6435491768       32.6877186025        7.9784590571
 Zr        28.3446653251       16.3356666061        8.0832266679
 Zr        32.6286086186       18.8300290479        8.0576245492
  H        28.8843298128       16.6056178893        1.0309271022
  H        32.1434173340       15.0426477891       -0.7700911401
