     572
 i =      178, E =     -4777.5999201942
  C        11.8588925990       14.0535129713        5.7414568762
  C        12.4564650806       12.8907491951        5.0229650471
  C        11.7047211705       12.1717186438        4.0814063614
  C        12.2811277256       11.1095936699        3.3889550449
  C        13.6217766132       10.7399078893        3.6164932410
  C        14.3550398086       11.4436830532        4.5897507104
  C        13.7821418488       12.5086038936        5.2813551966
  C        14.2612173961        9.6490992393        2.8431778325
  C        14.2562485216        9.6566791675        1.4214653440
  C        13.7431143934       10.7587077138        0.6674030316
  C        49.1270017162       21.2331353273        5.8795912698
  C        48.5502605384       22.4011095750        5.1524613380
  C        49.3002560773       23.0683892868        4.1714250888
  C        48.7333162937       24.1075494608        3.4382363469
  C        47.4028042215       24.5092305262        3.6669324497
  C        46.6719020215       23.8604227910        4.6805241145
  C        47.2343659910       22.8155097109        5.4098485581
  C        46.7724814845       25.5869302578        2.8697148328
  C        46.7613306118       25.5573495733        1.4479529985
  C        47.2613232179       24.4423348965        0.7043798996
  C        14.8600089102        8.5701547745        0.7083119902
  C        14.8919797706        8.5972056918        3.5199438065
  C        49.1133895344       21.2035029792       10.1453635033
  C        48.5280086158       22.3649859729       10.8724888900
  C        49.2671637183       23.0257336558       11.8654259304
  C        48.6908084031       24.0603459097       12.5968207384
  C        47.3604154035       24.4571566643       12.3585251710
  C        46.6401010056       23.8122578314       11.3349238498
  C        47.2136849725       22.7763047406       10.6032141350
  C        46.7218604204       25.5320770088       13.1495852026
  C        46.7334856774       25.5283129721       14.5713013669
  C        47.2490253681       24.4290983708       15.3276194710
  C        40.6370939941       17.1617819561       15.3223501055
  C        40.6577290525       17.1835217030       12.5136645440
  C        11.8831179439       14.0864168597       10.2855264007
  C        12.4722769887       12.9104364346       10.9896040858
  C        11.7145584897       12.1770202330       11.9154048269
  C        12.2809338535       11.0943083213       12.5836002915
  C        13.6197477331       10.7204416264       12.3518851335
  C        14.3579246083       11.4362390719       11.3914022632
  C        13.7927254493       12.5176928007       10.7189272417
  C        14.2531371784        9.6235152748       13.1223315958
  C        14.2520214627        9.6437483583       14.5441879279
  C        13.7423845672       10.7528977202       15.2911355547
  C        22.5125687040        3.2443431300        5.7534302362
  C        23.2293319502        4.3485091803        5.0549291126
  C        24.2267333536        4.0663278478        4.1097996278
  C        24.8560739966        5.1044490058        3.4279418193
  C        24.5037105800        6.4468143818        3.6712166178
  C        23.5347613337        6.7205678500        4.6536856973
  C        22.9007184472        5.6842162688        5.3339642969
  C        25.1112759187        7.5517927909        2.8950995734
  C        25.0826782381        7.5441263159        1.4737085413
  C        24.3777451043        6.5460794828        0.7285218535
  C        38.2987805997       31.9281789699        5.8516438963
  C        37.5595408945       30.8393881448        5.1488896059
  C        36.5956288526       31.1462493912        4.1760861985
  C        35.9677160867       30.1281758916        3.4637480627
  C        36.2884940358       28.7772444726        3.7014375422
  C        37.2217259655       28.4777746534        4.7118899468
  C        37.8537317822       29.4948421131        5.4234714542
  C        35.6799396398       27.6889032202        2.9022079714
  C        35.7197636483       27.7041237698        1.4805726214
  C        36.4333784247       28.7042505431        0.7473871919
  C        25.7069074265        8.6128341605        0.7531651555
  C        25.7099776679        8.6259637550        3.5653431731
  C        38.3307868108       31.9617018154       10.1603620951
  C        37.6131660699       30.8891383053       10.9087352530
  C        36.6814456958       31.1996442769       11.9112653664
  C        36.0712465133       30.1830689718       12.6439158538
  C        36.3778377862       28.8296464990       12.3979009665
  C        37.2900776741       28.5289631746       11.3677491708
  C        37.9022776427       29.5421138640       10.6363693382
  C        35.7628358049       27.7318534150       13.1799258135
  C        35.7619091061       27.7262265560       14.6023697415
  C        36.4523757243       28.7155353916       15.3707001208
  C        46.1353719442       26.6208509494       15.2815165667
  C        46.0878328018       26.5804531581       12.4736012231
  C        22.4604733379        3.2553289165       10.2578617520
  C        23.1539212038        4.3634112591       10.9819198125
  C        24.1561169107        4.0766362134       11.9224178603
  C        24.7840443446        5.1061937480       12.6191345206
  C        24.4301855113        6.4522400285       12.3976837482
  C        23.4509902465        6.7323024818       11.4257510845
  C        22.8182461358        5.7029594299       10.7296755092
  C        25.0621457624        7.5495997656       13.1717365490
  C        25.0580128403        7.5424341870       14.5945374600
  C        24.3641945945        6.5462647113       15.3517136039
  C        26.6250842101       17.8631479147        5.7845006885
  C        25.3162806161       17.9059721072        5.0595680820
  C        25.0588434957       18.8966039300        4.0988914851
  C        23.8456010167       18.9152926638        3.4128969393
  C        22.8527224201       17.9463203141        3.6649110350
  C        23.1069730163       16.9780646927        4.6546293822
  C        24.3221807774       16.9541846100        5.3382421345
  C        21.5793493308       17.9300807301        2.9001975850
  C        21.5793734215       17.9062677256        1.4774680324
  C        22.7848242134       17.7791267084        0.7175804883
  C        34.4415035684       17.1938304429        5.9216577349
  C        35.7331392076       17.1522396873        5.1731318062
  C        35.9405812108       16.1891399206        4.1734588759
  C        37.1198136667       16.1854962380        3.4335991107
  C        38.1247150471       17.1417840166        3.6775149093
  C        37.9202979820       18.0849142131        4.7020467560
  C        36.7369673367       18.0956234782        5.4366962518
  C        39.3800706509       17.1551919267        2.8940143880
  C        39.3776009178       17.1781806446        1.4730304690
  C        38.1718380832       17.3082873400        0.7144103216
  C        20.3334443032       17.9254314908        0.7676919949
  C        20.3536447240       17.9342834669        3.5812803974
  C        34.4789841839       17.2457511514       10.1801502153
  C        35.7821501031       17.1754868755       10.9042019105
  C        35.9964046654       16.1982359063       11.8873446198
  C        37.1817616239       16.1867675721       12.6170245835
  C        38.1804676663       17.1513060386       12.3812098087
  C        37.9727984337       18.1030922762       11.3658794086
  C        36.7850305105       18.1200716650       10.6399672612
  C        39.4263984211       17.1748170739       13.1771141768
  C        39.4012955341       17.1889985079       14.5976792082
  C        38.1829489210       17.3115089398       15.3376655602
  C        35.1225839232       26.6495449858       15.3026076986
  C        35.1739373528       26.6624677961       12.4930855793
  C        26.5783268372       17.8269476696       10.3267032950
  C        25.2626355244       17.8774779043       11.0320191390
  C        25.0083615464       18.8725677468       11.9880653409
  C        23.7896570309       18.8998883261       12.6611754565
  C        22.7977730967       17.9318388857       12.4037339084
  C        23.0480875326       16.9623108705       11.4155606817
  C        24.2662251962       16.9333055144       10.7396095890
  C        21.5337655472       17.9109662973       13.1763103959
  C        21.5561320932       17.8948212430       14.5980738381
  C        22.7733920137       17.7732667793       15.3410585909
  C        14.0480173422       17.8290521214       10.2890087635
  C        15.3531630878       17.8868424373       11.0136842256
  C        15.6091615114       18.8883592732       11.9634546322
  C        16.8185604998       18.9097003451       12.6558903594
  C        17.8072577597       17.9326550348       12.4209838980
  C        17.5561570482       16.9557419006       11.4388015441
  C        16.3460510231       16.9295577932       10.7481529627
  C        19.0766609814       17.9155893641       13.1904507893
  C        19.0745798232       17.9082403765       14.6132375825
  C        17.8674459632       17.8067452899       15.3738437791
  C        46.8074433988       17.2205919330       10.1596614848
  C        45.5200605756       17.1658069913       10.9085764264
  C        45.3136503438       16.1940808609       11.8996033557
  C        44.1339547662       16.1852916134       12.6387352817
  C        43.1326299097       17.1481853966       12.4070624572
  C        43.3365113343       18.0997435532       11.3899098889
  C        44.5168546795       18.1126956831       10.6522913934
  C        41.8802462596       17.1676431735       13.1946358176
  C        41.8847773867       17.1704566587       14.6160370134
  C        43.0930718524       17.2620972510       15.3761599398
  C        20.3210043448       17.9181949869       15.3223944213
  C        20.3015195579       17.9011119021       12.5091839396
  C        46.7863066754       17.2311891652        5.8906089799
  C        45.4821152067       17.1278030841        5.1776222544
  C        45.2620965796       16.1351085439        4.2110784963
  C        44.0738059847       16.1151237941        3.4852988971
  C        43.0773976255       17.0846180856        3.7101210107
  C        43.2867681655       18.0452834638        4.7168066962
  C        44.4762551666       18.0720091206        5.4371429442
  C        41.8331296909       17.1172144807        2.9117223708
  C        41.8609149315       17.1428510137        1.4913033262
  C        43.0817847316       17.2464144883        0.7527702729
  C        46.1531801770       26.6372076204        0.7262841356
  C        46.1625546474       26.6560268560        3.5359139692
  C        14.0460813171       17.8315099091        5.7083478843
  C        15.3671621520       17.9049913020        5.0176872435
  C        15.6404544330       18.9179475410        4.0862900188
  C        16.8695619170       18.9540490003        3.4314368771
  C        17.8536492917       17.9764471619        3.6820261763
  C        17.5872790270       16.9927855751        4.6518999427
  C        16.3601166222       16.9559824452        5.3100625166
  C        19.1213994215       17.9503327105        2.9135320490
  C        19.0979354547       17.9248961088        1.4918488151
  C        17.8788677547       17.8143362564        0.7502474054
  C        28.8080967919       14.0901341093       10.3902149911
  C        28.1946251300       12.9152356758       11.0767872167
  C        28.9230053219       12.1641366631       12.0111433583
  C        28.3239858632       11.0897260088       12.6640869447
  C        26.9827657990       10.7418852655       12.4055244582
  C        26.2758181826       11.4727908121       11.4340213605
  C        26.8725505360       12.5478868153       10.7799747683
  C        26.3156930659        9.6612457243       13.1675555452
  C        26.3090188222        9.6853658576       14.5886004194
  C        26.8194030634       10.7953961431       15.3340265988
  C        32.1796900228       21.2414289043       10.1460043530
  C        32.7715672425       22.4099059330       10.8657406901
  C        32.0190286844       23.0908962340       11.8351277391
  C        32.5870274658       24.1322144275       12.5634727023
  C        33.9234916617       24.5197275563       12.3450755769
  C        34.6584823750       23.8568910093       11.3439756818
  C        34.0925325753       22.8111874264       10.6166081313
  C        34.5503484722       25.5948394321       13.1484758023
  C        34.5324347321       25.5676951989       14.5702893354
  C        34.0143156102       24.4550905919       15.3057431674
  C        25.6987309989        8.6084289988       15.3082848956
  C        25.6759191388        8.6122411868       12.4948145229
  C        32.0807303657       21.2054118089        5.8791469385
  C        32.6521456622       22.3670005346        5.1329992520
  C        31.9161112968       23.0220536501        4.1336047722
  C        32.4900810188       24.0602795663        3.4014556516
  C        33.8138908529       24.4744122005        3.6501554167
  C        34.5312912953       23.8330013261        4.6782163378
  C        33.9626307780       22.7907829056        5.4050974149
  C        34.4547614640       25.5596335565        2.8704437881
  C        34.4820253329       25.5504282273        1.4484494778
  C        33.9890760496       24.4475478546        0.6823022769
  C        40.6247487609       17.1518188671        0.7662816879
  C        40.6018892404       17.1413662388        3.5756078267
  C        28.7475760131       14.0679805777        5.8218947503
  C        28.1366686301       12.9201085402        5.0833372957
  C        28.8763761345       12.2193915821        4.1186787673
  C        28.2977210276       11.1624898216        3.4195919408
  C        26.9628783553       10.7795529053        3.6605435432
  C        26.2397985913       11.4680112356        4.6524348124
  C        26.8172457411       12.5256423838        5.3530310439
  C        26.3229481824        9.6876364860        2.8876258266
  C        26.3137995373        9.6989578009        1.4657271908
  C        26.8194226370       10.8032393996        0.7101295504
  C        18.1354615199        3.1795117387       10.3177594061
  C        17.4054192326        4.2765497105       11.0159848891
  C        16.3906383964        3.9980713350       11.9444964006
  C        15.7425654892        5.0380622569       12.6076907314
  C        16.0933231933        6.3819308072       12.3669584992
  C        17.0817916333        6.6514961152       11.4022637567
  C        17.7310517321        5.6141694470       10.7373523411
  C        15.4691093583        7.4898198941       13.1298837234
  C        15.4847064119        7.4895538126       14.5516203926
  C        16.1864860490        6.4961988515       15.3049333009
  C        42.9455743350       31.8596572100       10.0726892014
  C        43.6458027393       30.7721861177       10.8171195179
  C        44.5911655563       31.0934672574       11.8033604671
  C        45.1969299124       30.0878934546       12.5509686715
  C        44.8707624396       28.7347965948       12.3358932377
  C        43.9451250654       28.4205014337       11.3224795925
  C        43.3362258975       29.4256652518       10.5745493886
  C        45.4884655323       27.6554540875       13.1389613745
  C        45.4925525036       27.6809588626       14.5606625857
  C        44.8053683324       28.6888814924       15.3073726089
  C        14.8559690364        8.5622800081       15.2638634386
  C        14.8739208728        8.5616278093       12.4511823605
  C        42.9463318595       31.9615791467        5.8091210949
  C        43.6918196019       30.8854023015        5.0958081452
  C        44.6562109474       31.1912973410        4.1233084376
  C        45.2777196651       30.1717140216        3.4055494233
  C        44.9541091997       28.8213830180        3.6433169318
  C        44.0208823129       28.5237259568        4.6543426121
  C        43.3926439875       29.5404949266        5.3665595558
  C        45.5630697490       27.7239926969        2.8579727296
  C        45.5331791995       27.7172886570        1.4366716172
  C        44.8267052642       28.7074516205        0.6837690798
  C        35.0989680292       26.6397130342        0.7479351317
  C        35.0651865974       26.6162541455        3.5582817933
  C        18.1483061574        3.2468892690        5.7066786293
  C        17.4298201937        4.3437966399        4.9974301216
  C        16.4145299333        4.0525455283        4.0739287922
  C        15.7662891815        5.0831756628        3.3984751248
  C        16.1210965554        6.4284130587        3.6210377715
  C        17.1125445358        6.7117895838        4.5782298035
  C        17.7601502289        5.6828683777        5.2580696245
  C        15.4906337409        7.5240797790        2.8484893665
  C        15.4962609887        7.5071676858        1.4273501373
  C        16.1929561990        6.5053549698        0.6807430082
  H        10.6725148025       12.4656773766        3.9045634418
  H        11.6947802299       10.5510047882        2.6625468720
  H        15.3921739754       11.1693217959        4.7712604425
  H        14.3517621756       13.0719813414        6.0165554800
  H        13.3763001258       11.6309949201        1.2005865093
  H        50.3229596692       22.7483419760        3.9866554378
  H        49.3198091951       24.6228056982        2.6806560549
  H        45.6424553357       24.1612873886        4.8637956893
  H        46.6634346503       22.2903176519        6.1720326837
  H        47.6300318198       23.5760000852        1.2460174467
  H        14.8725326738        8.5887148559        4.6082579897
  H        50.2872119194       22.7029059256       12.0603852217
  H        49.2692138518       24.5758113594       13.3603104687
  H        45.6107446121       24.1095783823       11.1457235371
  H        46.6529448820       22.2541938131        9.8315584232
  H        47.6079505473       23.5520721915       14.7966681399
  H        40.6650098246       17.1465397138       11.4260321747
  H        48.6871229413       14.0949684978        7.8000384602
  H        10.6810721923       12.4660912285       12.0927137081
  H        11.6889765860       10.5237832926       13.2960557933
  H        15.3933925968       11.1583996181       11.2055867665
  H        14.3653435561       13.0872426102        9.9907514632
  H        13.3756476499       11.6214803340       14.7523847082
  H        47.9302988154       14.2183543318        9.7109788578
  H        47.7801418247       14.3738060004        6.4952550640
  H        49.0852581871       18.5528529930       10.8677092874
  H        10.4163920347       14.1342274806        7.9987001675
  H        24.4861418407        3.0272177580        3.9198085564
  H        25.6295102018        4.8856174046        2.6949161977
  H        23.2557310216        7.7541324821        4.8478355682
  H        22.1302907154        5.8860770329        6.0741279243
  H        23.8160887656        5.7901878894        1.2696073493
  H        36.3635686206       32.1903623889        3.9798507553
  H        35.2211032945       30.3706825314        2.7106856122
  H        37.4772484892       27.4376522823        4.9035933633
  H        38.5999669238       29.2704818491        6.1820255399
  H        36.9967866554       29.4527638476        1.2968409815
  H        25.7445199535        8.6097765428        4.6531784595
  H        36.4549909906       32.2441493764       12.1131521570
  H        35.3422853463       30.4304821353       13.4124671292
  H        37.5402099862       27.4884881018       11.1712356729
  H        38.6276031733       29.3139757665        9.8591405532
  H        37.0313314496       29.4724107204       14.8492154147
  H        46.1093605594       26.5879884561       11.3855670557
  H        44.6705525741       35.1163685053        7.8103185003
  H        24.4340233664        3.0383284222       12.0887070234
  H        25.5649596913        4.8768496109       13.3410275565
  H        23.1662810599        7.7669784023       11.2457806358
  H        22.0465030936        5.9163969325        9.9937078833
  H        23.7915145498        5.7911241486       14.8211407167
  H        44.9544419390       34.3897111428        9.6947453080
  H        44.9003157676       34.2058096332        6.4887472167
  H        40.6655993399       33.2098232491       10.8524239888
  H        23.1516354625        1.9580307583        8.0044360075
  H        25.8232185389       19.6459831312        3.9057900461
  H        23.6512156363       19.6905860741        2.6747495911
  H        22.3531162137       16.2203560832        4.8587557971
  H        24.5288096134       16.1926742909        6.0867180725
  H        23.7242141986       17.6560201555        1.2486471538
  H        35.1621448400       15.4521859701        3.9897866818
  H        37.2815626469       15.4308869467        2.6668454340
  H        38.6891549357       18.8305664100        4.8939071345
  H        36.5611059143       18.8376041678        6.2121983184
  H        37.2335977648       17.4348615374        1.2468774146
  H        20.3597017776       17.9767685998        4.6690642660
  H        35.2143613268       15.4658813626       12.0741308281
  H        37.3491331359       15.4261912322       13.3765718573
  H        38.7387734874       18.8531851907       11.1800745378
  H        36.6007315094       18.8720217990        9.8763057136
  H        37.2531667739       17.4391420100       14.7908312494
  H        35.1542516800       26.6880734102       11.4052037140
  H        28.5110809585       21.0762422475        7.9720700602
  H        25.7801456478       19.6138588025       12.1851733761
  H        23.5909445898       19.6764729093       13.3966950135
  H        22.2911808817       16.2079656159       11.2105455486
  H        24.4751418207       16.1731890761        9.9905804209
  H        23.7042023156       17.6453286808       14.7967033615
  H        28.9771742976       21.7259337751        9.7788282552
  H        29.1610004088       21.7416749785        6.6264633116
  H        32.1563847703       18.5625426884       10.9779087805
  H        27.4055758577       19.0693752364        8.0832436787
  H        14.8497803351       19.6459132212       12.1440145780
  H        17.0124016531       19.6926595620       13.3859234973
  H        18.3086070389       16.1933466639       11.2475975110
  H        16.1415229583       16.1615504845       10.0059613342
  H        16.9252740582       17.6907907997       14.8460622870
  H        46.0944769853       15.4598079454       12.0833108451
  H        43.9725803950       15.4243526928       13.3991011381
  H        42.5704864445       18.8507295314       11.2082946070
  H        44.6925877572       18.8612271142        9.8833283548
  H        44.0354550709       17.3756896133       14.8479506502
  H        20.2961173176       17.9358655771       11.4211764612
  H        46.0381152432       15.3949810289        4.0295660511
  H        43.9051914072       15.3460967390        2.7346101861
  H        42.5213224728       18.7972542888        4.8966804234
  H        44.6612229475       18.8333274337        6.1908846627
  H        44.0155828654       17.3467482561        1.2983704988
  H        46.1995960345       26.6825927326        4.6233529979
  H        52.7413333405       21.0626981898        8.1947266331
  H        14.8798007891       19.6709351276        3.8921354716
  H        17.0802079609       19.7426937445        2.7122869755
  H        18.3382871353       16.2317421386        4.8536883939
  H        16.1396228090       16.1833298949        6.0425775781
  H        16.9451880976       17.7041521806        1.2935775912
  H        52.3229568048       21.6733881866        6.2940524406
  H        52.0134017076       21.7021273870        9.4957112838
  H        49.0680974952       18.6078381852        5.2040261379
  H        13.2479808976       19.0159999202        7.9772693118
  H        29.9572999107       12.4361905752       12.2095640148
  H        28.8900608510       10.5058616224       13.3867223738
  H        25.2395072709       11.2135837767       11.2270867760
  H        26.3251180425       13.1335648047       10.0454352912
  H        27.1852860476       11.6620951211       14.7919272812
  H        30.9928050660       22.7777196644       12.0127043851
  H        31.9975746923       24.6602162288       13.3099428476
  H        35.6928239167       24.1461049122       11.1692511620
  H        34.6655252250       22.2742137797        9.8640625112
  H        33.6593605873       23.5881175768       14.7560518299
  H        25.7018873705        8.5947353906       11.4066782698
  H        30.8956163620       22.7010050975        3.9368975885
  H        31.9108334832       24.5691000368        2.6339002582
  H        35.5558071219       24.1404820884        4.8775385667
  H        34.5230383111       22.2746283343        6.1810139222
  H        33.6149369659       23.5741592395        1.2086231032
  H        40.5930616002       17.0948129682        4.6628984843
  H        32.5081800779       14.1479867277        8.2534779026
  H        29.9067071938       12.5168914237        3.9370762259
  H        28.8794745035       10.6143190794        2.6815886439
  H        25.2069162307       11.1852121466        4.8452430174
  H        26.2560699600       13.0728720385        6.1068632413
  H        27.1841825909       11.6759437154        1.2438958423
  H        33.3113545299       14.2287236843        6.4697220254
  H        33.4099736823       14.4073774885        9.6000098676
  H        32.1369041054       18.5278811006        5.2078464042
  H        30.2149519583       14.1908022532        8.0787581581
  H        16.1198598437        2.9614361047       12.1320417767
  H        14.9537825729        4.8185376509       13.3240405025
  H        17.3634717347        7.6844188671       11.2082988164
  H        18.5123506358        5.8169909015       10.0087703253
  H        16.7530607432        5.7388100919       14.7715294645
  H        44.8274510227       32.1405244238       11.9776711437
  H        45.9367039437       30.3416576803       13.3070000787
  H        43.6827038109       27.3784103602       11.1520756849
  H        42.5998697979       29.1903492495        9.8096272456
  H        44.2299311604       29.4366367560       14.7691425268
  H        14.8500536451        8.5446874924       11.3629655602
  H        44.8996176369       32.2339799137        3.9316996439
  H        46.0244845076       30.4129661845        2.6521791614
  H        43.7641143596       27.4839826567        4.8460982393
  H        42.6463215376       29.3177141631        6.1251852078
  H        44.2681825706       29.4702839303        1.2184193192
  H        35.0169354640       26.6283399053        4.6455484400
  H        36.6077560157       35.1344443524        8.1847202746
  H        16.1433013302        3.0129815352        3.9043594984
  H        14.9739083320        4.8563420206        2.6884498778
  H        17.3962225746        7.7472350006        4.7549914822
  H        18.5430907705        5.8933794027        5.9827448203
  H        16.7645698926        5.7552968956        1.2192432164
  H        36.2777913081       34.4835503099        6.2733178340
  H        36.3849154543       34.2075863779        9.4999431672
  H        40.5781883565       33.2019584924        5.1537856206
  H        17.4748928425        1.9454790483        7.9767491809
  H        28.9828506567       17.0450922116       12.2982401983
  H        29.7645706661       19.6705000635        3.5807318113
  H        31.7937143566       15.6956632401        3.5902505573
  H        31.1441659469       15.5189216816       12.5345094839
  H        28.0026759782       18.1935439272       14.6986998372
  H        29.3162562974       15.2970486795       14.4761449533
  H        31.7212997609       20.0909983912        1.4736362632
  H        33.1018426989       16.7653509632        1.4933839895
  H        28.8742618719       16.9222888447        1.2582974662
  H        32.3161511471       18.3618941390       14.8267151242
  H        18.9041541807        0.8513568581       12.3625775758
  H        40.5249393348       35.2296781446        3.9514069776
  H        42.3243035337       34.4188741498        3.5894679528
  H        22.0967238463        0.6990197785       12.3434289160
  H        11.5972091838       18.7129162942       12.3826424589
  H        52.2649125716       18.4311590463        3.6771019537
  H        49.2546489976       16.4771106704        3.5848149354
  H        10.1503149981       15.7981531478       12.2927410155
  H        50.8500985272       17.6924845888        3.9541909159
  H        10.0464288009       17.3944369635       12.0519191066
  H        20.2919922434        0.0042611577       12.0340955515
  H        39.1821247473       36.1255597903        3.6891554118
 Ni        30.9460487322       17.7620918638        2.8276129900
 Ni        31.1120937720       16.3527878422       -0.0006920502
 Ni        30.0557293322       18.9165379346       -0.0786737055
 Ni        30.0169136702       17.5152178331       13.1580005514
  O        10.6500063725       14.3650812523        5.4858160933
  O        12.6132065764       14.6574926424        6.5838857695
  O        49.1481910934       16.8458291746        7.9897303875
  O        50.3503655663       20.9357327452        5.6479742867
  O        48.3486243148       20.5933763373        6.6658801544
  O        11.0520003612       17.0536922013        6.5007714510
  O        50.3211112053       20.8816887424       10.4068897335
  O        48.3468005550       20.5868423720        9.3271900101
  O        49.5443634959       18.2484243738       10.0682524380
  O        12.3593201977       18.6246278598        7.9997410676
  O        48.6932849187       14.1485578817        6.7513113712
  O         8.2099339096       14.2103714165        9.3225354066
  O        10.7354569537       14.5067206210       10.6643133498
  O        12.5718789027       14.5827798410        9.3285243290
  O        22.8445231331        2.0429101837        5.4871042149
  O        21.6057609467        3.5923695208        6.5894384237
  O        42.0593381810       34.1369170377        7.9768254766
  O        37.9813047555       33.1365042774        5.5726527305
  O        39.2173902460       31.5750809366        6.6661332759
  O        20.3089989834        1.0396745613        6.5018007500
  O        38.0254101124       33.1857263951       10.4165584748
  O        39.2184689991       31.5832208193        9.3274869057
  O        40.6543211624       33.7681575174       10.0580787034
  O        18.2592714032        1.3737342282        7.9982610601
  O        44.6227977893       35.1002635919        6.7567869253
  O        24.2068255621       -0.0001406061        9.3203697659
  O        22.7530655007        2.0569146172       10.5834453420
  O        21.6247048374        3.5959312152        9.3426526577
  O        27.4981062169       18.7536603383        5.4974567363
  O        26.7663485810       16.9339241147        6.6549381620
  O        30.6645417613       19.3984601425        8.0716709621
  O        33.5925698405       16.2730343021        5.6701318784
  O        34.2760790490       18.1688976849        6.7347768538
  O        29.5754370519       17.0623875188        6.5773810654
  O        33.6217213502       16.3280005885       10.4132229959
  O        34.3088963395       18.2459972622        9.4052919083
  O        31.7121016086       18.3076266300       10.1528447576
  O        30.3220448112       15.1558968807        8.0915536200
  O        28.5545961313       21.0312916654        6.9016172717
  O        28.5129711483       20.9546178805        9.4124139627
  O        27.4687152090       18.6736999519       10.6648684554
  O        26.6953654287       16.9292211165        9.4139700426
  O        13.1495569701       18.6927618503       10.5875953891
  O        13.9199223533       16.9163037170        9.4053325292
  O        50.5966953937       19.3503220029        8.0205136010
  O        47.6837274307       16.3269788535       10.4172826387
  O        46.9527700429       18.1761568441        9.3238844718
  O        11.0702259128       17.0153204304        9.4896370158
  O        47.6760692149       16.3355126493        5.6530501294
  O        46.9286123746       18.2358599028        6.6654551377
  O        49.5690110200       18.3176916795        5.9823308694
  O        10.3187871222       15.1000552632        7.9970891060
  O        52.6708046423       21.0278624818        9.2418263944
  O        12.1468727495       20.8911678034        6.6732510633
  O        13.1084740837       18.6135415845        5.3255280721
  O        13.9573872805       16.9871323878        6.6653552086
  O        29.9917054200       14.4400268411       10.7327077660
  O        28.0886398277       14.6538562127        9.4957472172
  O        32.1392467639       16.8528560661        8.0855853481
  O        30.9656769822       20.9504673855       10.4117184209
  O        32.9466838730       20.6061726502        9.3391809107
  O        29.5746409450       17.0751273400        9.5796768886
  O        30.8539020801       20.8948310030        5.6596963745
  O        32.8717988214       20.5872634860        6.6640572981
  O        31.6863154290       18.2521258881        6.0206792082
  O        28.2922174365       18.6736564202        8.0782566861
  O        32.4929710682       14.2130708859        9.3308321422
  O        32.4070372627       14.2124435689        6.8255395340
  O        29.9193110992       14.4367094959        5.4929495673
  O        28.0387939776       14.5899778198        6.7543769709
  O        17.8898079674        1.9652323383       10.6634696256
  O        18.9561698181        3.5265202043        9.4083832031
  O        39.1692229088       34.1390968599        7.9994177579
  O        43.2804123739       33.0593206605       10.3313507265
  O        42.0345053455       31.5065862555        9.2414844424
  O        20.3212863760        1.0373036915        9.4790362189
  O        43.2760844713       33.1825401371        5.5747629754
  O        42.0051149196       31.5841825911        6.5829842956
  O        40.5787136497       33.7748721168        5.9357272888
  O        22.3684626569        1.3848566853        7.9971977522
  O        36.6741822870       35.0996639877        9.2357846620
  O        16.4460222502        0.0646847548        6.6681027755
  O        17.9365212681        2.0433245622        5.3266062808
  O        18.9189143809        3.5930925335        6.6660674597
  O        29.8991057334       18.8500917672        4.0881031417
  O        29.9952602336       18.8416165843       11.9902262554
  O        31.3401633840       16.3514105970        4.1503620975
  O        31.3451349609       16.3498750876       12.0626341610
  O        32.1591206917       16.5552697669        1.5803049347
  O        29.7683478220       17.2933634969        1.1686425829
  O        30.1165782486       15.8403025801       14.4031509847
  O        31.4308403499       17.9601220728       14.8167074252
  O        30.9630441571       19.4888435238        1.5107064769
  O        28.8534195683       18.6096385207       14.4869983383
  O        39.4556933743       35.2441120525        4.0021356464
  O        19.2007784222        0.0033258133       11.9878761446
  O        41.9699319634       35.1724254471        4.0865831993
  O        21.7009103885       -0.0689756654       11.8979787638
  O        51.3651160457       18.6142516984        4.0053727152
  O        10.7514883452       18.7471060297       11.9049254101
  O        50.0792353964       16.4127716597        4.0917738188
  O         9.5245349072       16.4830978246       11.9912046158
 Zr         9.2976698083       16.0526340259        6.1825626778
 Zr        49.8371022441       16.0065200386        9.7462306189
 Zr        22.0725853922        0.0307389607        6.1860448408
 Zr        42.4636356269       35.1521975150        9.7914914575
 Zr        29.6035499643       19.0836195371        6.2736452473
 Zr        29.5871419782       19.1779308505        9.8797981188
 Zr        11.0390448736       19.0517017317        9.8278447564
 Zr        11.0446893423       19.1546503344        6.2508818934
 Zr        31.3569647587       16.0981376288        9.8913810576
 Zr        31.3905813837       16.0109093078        6.2926239850
 Zr        18.6071291854        0.0003953712        9.7753318634
 Zr        18.5061930378       -0.0085113915        6.2168785146
 Zr        12.3031215127       16.3235349332        7.9903898531
 Zr        48.6178330465       18.8333488818        8.0102433970
 Zr        20.3146964955        2.4741592507        7.9900030248
 Zr        40.6411363502       32.6875220035        7.9777735542
 Zr        28.3470901241       16.3438375216        8.0810962776
 Zr        32.6285000340       18.8326689758        8.0565761953
