     574
 i =      266, E =     -4778.8512099198
  C        11.8588895006       14.0533459017        5.7415360596
  C        12.4564066651       12.8904503679        5.0233348665
  C        11.7047984163       12.1716297019        4.0815127480
  C        12.2812163414       11.1094365335        3.3892057763
  C        13.6217776126       10.7396184711        3.6170402163
  C        14.3548512894       11.4430605978        4.5906803713
  C        13.7819172430       12.5080184731        5.2821692606
  C        14.2613504892        9.6490299992        2.8436012777
  C        14.2565555036        9.6569373315        1.4219039893
  C        13.7432633047       10.7590062001        0.6679984792
  C        49.1269494979       21.2332372513        5.8797210079
  C        48.5502491720       22.4012022499        5.1525656669
  C        49.3001510007       23.0683835259        4.1713931308
  C        48.7331863072       24.1075353903        3.4382251966
  C        47.4027484915       24.5093596494        3.6670989383
  C        46.6719275996       23.8606463826        4.6808081880
  C        47.2344325188       22.8157586037        5.4101278569
  C        46.7724355600       25.5870334256        2.8698682969
  C        46.7612711992       25.5573702515        1.4481133899
  C        47.2610642035       24.4422258667        0.7045974783
  C        14.8606096294        8.5706827561        0.7086170340
  C        14.8923470220        8.5971791411        3.5202091543
  C        49.1133360386       21.2036503456       10.1455788204
  C        48.5280218785       22.3650098336       10.8727813306
  C        49.2671923773       23.0257170961       11.8657347661
  C        48.6907994300       24.0602739494       12.5971472437
  C        47.3604089112       24.4570534316       12.3587993002
  C        46.6400615918       23.8121404891       11.3352410595
  C        47.2136580081       22.7762209153       10.6035265076
  C        46.7218807239       25.5319813186       13.1497988160
  C        46.7334500106       25.5282432326       14.5714939292
  C        47.2488169925       24.4289701830       15.3278370729
  C        40.6421223991       17.1802079979       15.3128083746
  C        40.6496822482       17.1788214468       12.5046626856
  C        11.8830369554       14.0864324995       10.2855360046
  C        12.4723545855       12.9106455926       10.9896622859
  C        11.7149396275       12.1776076033       11.9159956273
  C        12.2815662478       11.0951672587       12.5843798103
  C        13.6203353263       10.7213115267       12.3523956974
  C        14.3581515907       11.4366657011       11.3913026205
  C        13.7926994637       12.5178145123       10.7186144179
  C        14.2540248237        9.6246383954       13.1228086208
  C        14.2526932022        9.6446096304       14.5446467960
  C        13.7426881036       10.7534865006       15.2917436325
  C        22.5133420093        3.2466550873        5.7538610579
  C        23.2274310313        4.3557419300        5.0588458443
  C        24.2287507444        4.0841422735        4.1145486864
  C        24.8519316053        5.1291985497        3.4365694522
  C        24.4899197330        6.4689908169        3.6816900471
  C        23.5180435049        6.7320793071        4.6642786160
  C        22.8904898546        5.6891547305        5.3408008977
  C        25.0846940603        7.5818188903        2.9049940750
  C        25.0482326553        7.5752183467        1.4834713949
  C        24.3540850998        6.5682192760        0.7402043480
  C        38.2979448346       31.9280782488        5.8523858165
  C        37.5553621136       30.8394877741        5.1513515214
  C        36.5893814582       31.1474482721        4.1808898267
  C        35.9580756005       30.1303036072        3.4700081247
  C        36.2773298136       28.7787365058        3.7062809358
  C        37.2126307774       28.4780828602        4.7145303885
  C        37.8479637159       29.4943437832        5.4248007744
  C        35.6662425241       27.6916017280        2.9064181121
  C        35.7081362003       27.7066920550        1.4847218155
  C        36.4239491736       28.7063271335        0.7529062769
  C        25.6540818153        8.6530181602        0.7608785376
  C        25.6778365140        8.6611179651        3.5726410423
  C        38.3313420981       31.9615220045       10.1604149858
  C        37.6157817890       30.8886428191       10.9111874097
  C        36.6827603028       31.1989579318       11.9125492417
  C        36.0733489755       30.1824310569       12.6460986853
  C        36.3821682865       28.8290416650       12.4025101480
  C        37.2967073203       28.5285443119       11.3743172845
  C        37.9078697180       29.5416495270       10.6418535129
  C        35.7661157013       27.7311451340       13.1838929791
  C        35.7593620299       27.7268653045       14.6063839030
  C        36.4467784452       28.7170506310       15.3763317895
  C        46.1354819329       26.6208957206       15.2816296486
  C        46.0880162478       26.5803945015       12.4737510628
  C        22.4596812910        3.2571041170       10.2600092659
  C        23.1482793502        4.3672849519       10.9861447635
  C        24.1440590608        4.0852560503       11.9351130224
  C        24.7655708838        5.1179339779       12.6337054343
  C        24.4123592516        6.4633480040       12.4061345231
  C        23.4399155681        6.7383005944       11.4256267041
  C        22.8134472889        5.7061283495       10.7279828294
  C        25.0357462650        7.5664886878       13.1802917360
  C        25.0234035065        7.5664974080       14.6035426745
  C        24.3394481460        6.5654970991       15.3632528881
  C        26.6248590226       17.8575394246        5.7453776814
  C        25.3227786515       17.9115731515        5.0159414526
  C        25.0501021348       18.9247494703        4.0837958426
  C        23.8304255741       18.9498988017        3.4093161994
  C        22.8502577755       17.9645973835        3.6449970508
  C        23.1209441804       16.9717079729        4.6047984638
  C        24.3402525071       16.9428649434        5.2785253609
  C        21.5734344654       17.9516790283        2.8876690879
  C        21.5732810815       17.9305999848        1.4659223241
  C        22.7797978053       17.8102702163        0.7063947892
  C        34.5075373822       17.2389145378        5.9701437588
  C        35.7944307683       17.2064056240        5.2161215920
  C        36.0207240516       16.2086018520        4.2552735218
  C        37.1858896311       16.2146918533        3.4951724406
  C        38.1598125840       17.2126677532        3.6854744309
  C        37.9408028551       18.1907299391        4.6731160048
  C        36.7678778698       18.1943293514        5.4243303330
  C        39.4069528605       17.2224279417        2.8900353893
  C        39.3943341796       17.2198843468        1.4695598633
  C        38.1822674014       17.3283149772        0.7179286019
  C        20.3266538905       17.9441324266        0.7587400573
  C        20.3501886318       17.9494322222        3.5724228983
  C        34.4782337574       17.2456011179       10.1811086244
  C        35.7798635309       17.1774741786       10.9042769378
  C        35.9893252704       16.2041205446       11.8922330405
  C        37.1736645935       16.1924898738       12.6228140685
  C        38.1748687337       17.1527731209       12.3819528907
  C        37.9714715303       18.1007852433       11.3623140063
  C        36.7845967851       18.1184736289       10.6356385897
  C        39.4219461908       17.1761996696       13.1746478917
  C        39.4021593827       17.1989066810       14.5951328367
  C        38.1866404246       17.3185478677       15.3408557860
  C        35.1174817509       26.6507921544       15.3053840388
  C        35.1813842272       26.6599889487       12.4960204496
  C        26.5691801631       17.8289919011       10.3216931879
  C        25.2524545727       17.8773091381       11.0241811464
  C        24.9849087885       18.8898618236       11.9579023385
  C        23.7670752178       18.9170500705       12.6316377651
  C        22.7878674953       17.9317799862       12.3943175185
  C        23.0491803086       16.9446476053       11.4270695126
  C        24.2679072764       16.9153367265       10.7517488271
  C        21.5245779843       17.9147757213       13.1676982631
  C        21.5484182613       17.9097263103       14.5889358710
  C        22.7675712190       17.7996556722       15.3302686483
  C        14.0455815141       17.8294964070       10.2873848862
  C        15.3498552676       17.8883106285       11.0108460722
  C        15.6055493012       18.8930182165       11.9568624037
  C        16.8146341747       18.9152203860       12.6488556040
  C        17.8008954176       17.9357014352       12.4158881602
  C        17.5501571849       16.9554665877       11.4374093323
  C        16.3404445139       16.9285979804       10.7471459667
  C        19.0692549744       17.9200300461       13.1841926491
  C        19.0672356326       17.9187236420       14.6063681346
  C        17.8603978575       17.8181884911       15.3679212522
  C        46.8064895969       17.2184683976       10.1565669038
  C        45.5158725931       17.1594346564       10.8984329380
  C        45.3084788462       16.1889618032       11.8903381978
  C        44.1264709792       16.1795843922       12.6254146200
  C        43.1247186476       17.1407426301       12.3886689444
  C        43.3279923966       18.0884671753       11.3680160714
  C        44.5107453290       18.1021656887       10.6346193146
  C        41.8750860881       17.1659453813       13.1794002004
  C        41.8862974284       17.1818653861       14.6002651904
  C        43.0989509057       17.2810401232       15.3523657581
  C        20.3137869142       17.9332771613       15.3140922604
  C        20.2928472611       17.9004064960       12.5013873738
  C        46.7928045044       17.2350482436        5.8877198471
  C        45.4949279429       17.1477148089        5.1657099868
  C        45.2713880692       16.1604737344        4.1948282269
  C        44.0873628209       16.1561512943        3.4628369659
  C        43.1017761430       17.1364167850        3.6871886259
  C        43.3160258827       18.0940261548        4.6952523315
  C        44.5006962206       18.1047267041        5.4220479093
  C        41.8571445771       17.1765516597        2.8937251068
  C        41.8773508648       17.1853730263        1.4739170494
  C        43.0948786889       17.2795144564        0.7289591900
  C        46.1532212796       26.6372456128        0.7263881036
  C        46.1626393370       26.6562288733        3.5360200685
  C        14.0451709287       17.8315702960        5.7079739042
  C        15.3655079758       17.9064805062        5.0155493041
  C        15.6368028959       18.9230451753        4.0874939354
  C        16.8648002395       18.9623439685        3.4308205022
  C        17.8497450434       17.9844458789        3.6763749497
  C        17.5851144960       16.9963042445        4.6421589023
  C        16.3589237535       16.9564073421        5.3022597428
  C        19.1168477393       17.9636496155        2.9064430897
  C        19.0920932961       17.9401943266        1.4847971822
  C        17.8724379161       17.8274191168        0.7442529086
  C        28.8060438310       14.0944087501       10.3957933465
  C        28.1852919838       12.9252047003       11.0843561137
  C        28.8884423474       12.2034740630       12.0602762402
  C        28.2790050262       11.1346195618       12.7126055345
  C        26.9522795740       10.7627570785       12.4131693548
  C        26.2721890479       11.4648056911       11.4019421683
  C        26.8788526321       12.5344172133       10.7485818638
  C        26.2743328072        9.6880143324       13.1735220763
  C        26.2459704130        9.7256109755       14.5941849856
  C        26.7220426215       10.8529135687       15.3360885689
  C        32.1803702658       21.2445875337       10.1417843985
  C        32.7769911140       22.4109864903       10.8614735042
  C        32.0235025937       23.0958200860       11.8275145599
  C        32.5921242123       24.1348961362       12.5580979932
  C        33.9308374032       24.5175525031       12.3451025885
  C        34.6673993590       23.8510907404       11.3476480546
  C        34.1006037737       22.8068160619       10.6182831960
  C        34.5558626197       25.5926888716       13.1501656470
  C        34.5310287579       25.5675406627       14.5720125563
  C        34.0099949194       24.4556774262       15.3067438433
  C        25.6471987281        8.6438157007       15.3157659359
  C        25.6502187346        8.6283001571       12.5020361921
  C        32.0781440506       21.1995735155        5.8756431959
  C        32.6412367252       22.3655697569        5.1317981601
  C        31.8990500578       23.0267201824        4.1404991680
  C        32.4704746309       24.0667982083        3.4084809014
  C        33.7969697767       24.4775634658        3.6504025122
  C        34.5191315688       23.8313288140        4.6719163601
  C        33.9536767825       22.7870246475        5.3978815762
  C        34.4377158626       25.5639725508        2.8716667877
  C        34.4682125053       25.5539772486        1.4498318275
  C        33.9783805228       24.4498724157        0.6832972750
  C        40.6374221168       17.1867208425        0.7561972388
  C        40.6309782773       17.2175879261        3.5651552630
  C        28.7211514624       14.1075784840        5.8169793945
  C        28.0958681762       12.9694313620        5.0798355733
  C        28.8040842719       12.3198525299        4.0573337509
  C        28.2224582322       11.2606463797        3.3649697377
  C        26.9135518244       10.8283866733        3.6624371211
  C        26.2219623439       11.4713432786        4.7069136454
  C        26.8036091415       12.5285111368        5.4050698400
  C        26.2707933778        9.7347991266        2.8936813030
  C        26.2441991514        9.7503661436        1.4710654201
  C        26.7168858430       10.8671494360        0.7121086254
  C        18.1355768441        3.1810681261       10.3171818660
  C        17.4064493948        4.2783268753       11.0159022037
  C        16.3902935058        4.0000830218       11.9429696542
  C        15.7426261297        5.0401418283       12.6063920339
  C        16.0951141765        6.3837811314       12.3671229091
  C        17.0850810562        6.6532064836       11.4039537730
  C        17.7341373287        5.6157827810       10.7389853146
  C        15.4706986142        7.4914736663       13.1301218344
  C        15.4859463348        7.4907840422       14.5518261442
  C        16.1876098181        6.4972060583       15.3049419607
  C        42.9458565134       31.8597062304       10.0728330946
  C        43.6462336607       30.7719758371       10.8168417819
  C        44.5914926501       31.0933522052       11.8031396917
  C        45.1972023519       30.0878511341       12.5508807589
  C        44.8710743771       28.7347504658       12.3358252078
  C        43.9455693416       28.4203385649       11.3223317529
  C        43.3367841281       29.4254537204       10.5742196542
  C        45.4886707137       27.6554544421       13.1390118823
  C        45.4927455223       27.6810093472       14.5607114007
  C        44.8057309000       28.6890611713       15.3073928949
  C        14.8567866327        8.5631534414       15.2641947150
  C        14.8753936710        8.5631930670       12.4515063572
  C        42.9464541825       31.9617855021        5.8090056406
  C        43.6918221890       30.8855849231        5.0956348254
  C        44.6562866888       31.1915252284        4.1232310887
  C        45.2778644834       30.1719515041        3.4055161408
  C        44.9543082326       28.8216175197        3.6433216863
  C        44.0210182033       28.5239263407        4.6542720398
  C        43.3927182310       29.5406793887        5.3664450860
  C        45.5632526008       27.7242062369        2.8580136725
  C        45.5333986149       27.7174614768        1.4367157191
  C        44.8270280401       28.7076776660        0.6837865131
  C        35.0882662287       26.6425319677        0.7506948500
  C        35.0485727179       26.6195879946        3.5610218260
  C        18.1488081280        3.2470836590        5.7065292928
  C        17.4304466683        4.3439265508        4.9970793780
  C        16.4148471318        4.0527575539        4.0739115957
  C        15.7666715877        5.0834661396        3.3985246175
  C        16.1217920235        6.4286242824        3.6209566411
  C        17.1137872351        6.7118934170        4.5775885739
  C        17.7613579554        5.6829137799        5.2573560373
  C        15.4912159204        7.5243209905        2.8485698727
  C        15.4970021892        7.5076548093        1.4274476765
  C        16.1938775006        6.5060332660        0.6807522042
  H        10.6726838798       12.4657579362        3.9044222873
  H        11.6950183411       10.5510049999        2.6625588409
  H        15.3918736348       11.1684643742        4.7724745588
  H        14.3513330005       13.0711368970        6.0177202873
  H        13.3762231988       11.6311172211        1.2013086519
  H        50.3227855783       22.7482002053        3.9864887762
  H        49.3195793958       24.6227057543        2.6805130164
  H        45.6425335878       24.1616145354        4.8642025094
  H        46.6635893375       22.2906993915        6.1724709355
  H        47.6295470019       23.5758139674        1.2462637068
  H        14.8728834430        8.5884304631        4.6085191020
  H        50.2872332144       22.7028680073       12.0606748993
  H        49.2691315495       24.5757546256       13.3606777309
  H        45.6106839184       24.1094238787       11.1461083434
  H        46.6528910821       22.2540149420        9.8319580552
  H        47.6075238083       23.5518366011       14.7969136639
  H        40.6510172139       17.1346331623       11.4172869627
  H        48.6871586218       14.0947906606        7.8001683365
  H        10.6815039663       12.4667145376       12.0935359160
  H        11.6898846172       10.5248261822       13.2972079141
  H        15.3935351164       11.1587086860       11.2051885056
  H        14.3649586763       13.0870309266        9.9899047282
  H        13.3758339365       11.6221081655       14.7531414130
  H        47.9302917499       14.2182617844        9.7109739924
  H        47.7800968942       14.3730210066        6.4953415473
  H        49.0840618669       18.5524676804       10.8676500118
  H        10.4165808571       14.1341023425        7.9987829911
  H        24.4963623336        3.0476817468        3.9211479829
  H        25.6275712929        4.9172897899        2.7038044018
  H        23.2307962440        7.7629031708        4.8610417744
  H        22.1177414231        5.8843142546        6.0803012641
  H        23.8022513933        5.8062390597        1.2828469785
  H        36.3583405934       32.1918706607        3.9850822753
  H        35.2102575756       30.3743404654        2.7186168487
  H        37.4675273633       27.4376527664        4.9054674727
  H        38.5957397383       29.2685569068        6.1814554010
  H        36.9858776155       29.4550511993        1.3035645806
  H        25.7248483472        8.6401061300        4.6599690112
  H        36.4543420679       32.2434011485       12.1126051172
  H        35.3429914097       30.4300053669       13.4132738056
  H        37.5492699267       27.4882703190       11.1798325702
  H        38.6345511276       29.3135167725        9.8658713307
  H        37.0271622420       29.4737464983       14.8561462056
  H        46.1095479546       26.5878831319       11.3857181209
  H        44.6684759898       35.1163961498        7.8138501874
  H        24.4223944491        3.0479384311       12.1070084799
  H        25.5416422201        4.8910861251       13.3615899567
  H        23.1552765230        7.7719957954       11.2399998878
  H        22.0470071797        5.9170381881        9.9857852849
  H        23.7754793745        5.8023167749       14.8348458112
  H        44.9543932219       34.3910034206        9.6956298702
  H        44.9019659696       34.2069538742        6.4906063212
  H        40.6669439784       33.2098272820       10.8534301516
  H        23.1502018486        1.9588478235        8.0057930687
  H        25.8000385552       19.6925092793        3.9064861913
  H        23.6211122868       19.7419568689        2.6934268850
  H        22.3763876970       16.2007506872        4.7924141931
  H        24.5610290802       16.1647869107        6.0054918296
  H        23.7203333224       17.6941816082        1.2369714660
  H        35.2695704082       15.4347155785        4.1167179703
  H        37.3613033692       15.4373980541        2.7545997866
  H        38.6887430676       18.9667726878        4.8221943845
  H        36.5768698485       18.9636223474        6.1689742668
  H        37.2447877187       17.4494302757        1.2537176093
  H        20.3584561401       17.9873615244        4.6603496335
  H        35.2044663906       15.4754993638       12.0817019417
  H        37.3383663278       15.4353366314       13.3862831671
  H        38.7404804379       18.8470449931       11.1738626529
  H        36.6030891946       18.8670317139        9.8680304120
  H        37.2519842371       17.4323225760       14.7993117368
  H        35.1662537217       26.6842061082       11.4080375507
  H        28.5101196529       21.0845934652        7.9798382862
  H        25.7442685673       19.6480490443       12.1360398113
  H        23.5584553091       19.7060605203       13.3509960858
  H        22.3008982282       16.1775718641       11.2382815705
  H        24.4864396004       16.1414612484       10.0197242176
  H        23.6986259122       17.6754630353       14.7853974315
  H        29.0061675230       21.7193857021        9.7618791067
  H        29.1353108653       21.7493225563        6.6080318390
  H        32.1006780012       18.5692389599       10.9780598884
  H        27.4028483844       19.0774519727        8.0675775997
  H        14.8462399960       19.6513159722       12.1343654550
  H        17.0104613608       19.6998761778       13.3764952863
  H        18.3021717066       16.1918457026       11.2495552348
  H        16.1338521703       16.1588973551       10.0073515565
  H        16.9181273502       17.7002545402       14.8407478990
  H        46.0906814688       15.4573275525       12.0786150780
  H        43.9643554765       15.4213343431       13.3883055245
  H        42.5606279020       18.8370107487       11.1820795796
  H        44.6874613857       18.8486789766        9.8639610601
  H        44.0383724764       17.3891594333       14.8179027876
  H        20.2862550895       17.9276267856       11.4132076682
  H        46.0403634432       15.4122329826        4.0168031058
  H        43.9120064642       15.3907320132        2.7100880095
  H        42.5577402472       18.8539137698        4.8718762308
  H        44.6917410398       18.8615799369        6.1786059700
  H        44.0312246490       17.3854481205        1.2691134209
  H        46.1996935867       26.6828684397        4.6234566108
  H        52.7411379645       21.0625309499        8.1946802632
  H        14.8753913875       19.6763292304        3.8975298882
  H        17.0739273532       19.7538372147        2.7143512675
  H        18.3365624347       16.2345242559        4.8395231448
  H        16.1397319435       16.1806377741        6.0319153854
  H        16.9392959371       17.7166380666        1.2883930548
  H        52.3220008723       21.6731846846        6.2945144061
  H        52.0129474340       21.7018663743        9.4955058726
  H        49.0691494969       18.6089794595        5.2041237048
  H        13.2476972472       19.0161590983        7.9768432197
  H        29.9096062085       12.4960266851       12.2942859862
  H        28.8256040375       10.5742876598       13.4680068221
  H        25.2474089274       11.1882039695       11.1626539073
  H        26.3504218529       13.0980232184        9.9836478479
  H        27.0657708988       11.7275621032       14.7922205691
  H        30.9952208307       22.7871887227       12.0001759049
  H        32.0017674795       24.6655171605       13.3019571524
  H        35.7035956245       24.1361395852       11.1770942073
  H        34.6754703172       22.2670985497        9.8691056052
  H        33.6594573506       23.5867843554       14.7571503403
  H        25.6900724964        8.6012757209       11.4144911038
  H        30.8751220423       22.7093939639        3.9533205843
  H        31.8879343549       24.5806924166        2.6467421635
  H        35.5453009523       24.1364526465        4.8661446279
  H        34.5186413207       22.2666436647        6.1676099265
  H        33.6048181972       23.5754649652        1.2086091297
  H        40.6279463644       17.1869874147        4.6529666862
  H        32.5196764493       14.1401793369        8.2591671873
  H        29.8078105494       12.6668111532        3.8222000128
  H        28.7827408544       10.7504368446        2.5846052375
  H        25.2087725712       11.1535818119        4.9444798143
  H        26.2651013376       13.0375207740        6.2009950852
  H        27.0538172837       11.7537726624        1.2413268568
  H        33.3017604694       14.1831724595        6.4457013465
  H        33.4097221123       14.3999686132        9.6118629199
  H        32.1525351379       18.5195244804        5.1891801764
  H        30.2039656364       14.1800702853        8.0897535670
  H        16.1178240204        2.9636246666       12.1290064800
  H        14.9528551866        4.8209164682       13.3217439758
  H        17.3681513231        7.6860044020       11.2113631945
  H        18.5167188589        5.8183619764       10.0117012384
  H        16.7543703734        5.7400385718       14.7714088647
  H        44.8275451262       32.1404679013       11.9774626752
  H        45.9369089274       30.3417166948       13.3069463487
  H        43.6832340363       27.3782150647       11.1519810580
  H        42.6005127427       29.1900801648        9.8092319309
  H        44.2304765017       29.4369118423       14.7691008512
  H        14.8517971081        8.5464756249       11.3632822828
  H        44.8996875553       32.2342248094        3.9316731052
  H        46.0246865135       30.4132451751        2.6522137315
  H        43.7643304067       27.4841684423        4.8460489954
  H        42.6464194095       29.3179028951        6.1250933549
  H        44.2686864619       29.4706777064        1.2183811315
  H        34.9994535557       26.6309441242        4.6482748884
  H        36.6054964476       35.1341175982        8.1806902462
  H        16.1434228992        3.0132220698        3.9045018959
  H        14.9740483819        4.8567705412        2.6887271701
  H        17.3978969688        7.7472781438        4.7539954118
  H        18.5447683662        5.8932989164        5.9815656285
  H        16.7655247728        5.7559691745        1.2192110817
  H        36.2793407725       34.4820108461        6.2731943590
  H        36.3819195383       34.2086518341        9.4992449575
  H        40.5797144736       33.2024431392        5.1536807475
  H        17.4712932813        1.9474579104        7.9741274294
  H        29.1097012163       19.4631353547       12.5530569158
  H        30.0369927094       19.3286923188        3.0855361993
  H        32.5760970657       16.2490661770        3.9879739631
  H        31.1447781578       15.5915456262       12.4775870664
  H        28.0764824019       18.3698390287       14.6694285794
  H        29.2935481899       15.3986127503       14.4481522479
  H        30.7891637236       20.7857887017        1.7431938755
  H        32.6416293441       15.3913002647        1.5574514617
  H        28.9046127691       16.8975026142        0.7920243190
  H        32.3399176394       18.4206311173       14.6888208169
  H        18.8544450730        0.8691745196       12.3353606096
  H        40.5280851823       35.2287722250        3.9519188235
  H        42.3254157427       34.4201629254        3.5897808541
  H        22.0876502725        0.6923893842       12.3512414625
  H        11.5966264288       18.7129546460       12.3829969018
  H        52.2647339220       18.4311402755        3.6767795734
  H        49.2552886288       16.4766637298        3.5846415069
  H        10.1495932649       15.7982167802       12.2931393033
  H        50.8499493437       17.6922425032        3.9542545215
  H        10.0458018367       17.3944286507       12.0520360582
  H        20.2161190234        0.0024982933       12.0417282219
  H        39.1840525910       36.1245839374        3.6866404805
 Ni        30.4819402483       16.4760327344        2.7431657935
 Ni        31.1955938016       16.3482103229       -0.2441245172
 Ni        30.0585365401       19.0585455980        0.0830789441
 Ni        30.2200904170       17.5587853957       13.2406372573
  O        10.6500836841       14.3650539044        5.4858472216
  O        12.6132743798       14.6574553039        6.5838633950
  O        49.1485948065       16.8456810898        7.9899100010
  O        50.3503846491       20.9357865740        5.6480386995
  O        48.3486763438       20.5934426324        6.6659411747
  O        11.0519433098       17.0536703582        6.5006882363
  O        50.3211531114       20.8817804573       10.4069113359
  O        48.3468298442       20.5870078872        9.3273708428
  O        49.5439482973       18.2484231841       10.0685023694
  O        12.3591816537       18.6245576452        7.9996630804
  O        48.6933704206       14.1483906782        6.7513963336
  O         8.2099272179       14.2102568101        9.3225057814
  O        10.7354068431       14.5067119655       10.6643375092
  O        12.5718314439       14.5827735584        9.3285034628
  O        22.8451096074        2.0450909892        5.4868115807
  O        21.6053712987        3.5923151101        6.5901550124
  O        42.0582776794       34.1375687118        7.9788281763
  O        37.9811896277       33.1364685561        5.5723899435
  O        39.2171789502       31.5748705387        6.6657883330
  O        20.3085667552        1.0397630008        6.5021710723
  O        38.0245906373       33.1852964902       10.4156728516
  O        39.2185764250       31.5830859080        9.3273008457
  O        40.6523068652       33.7693358133       10.0600125882
  O        18.2558171572        1.3760725420        7.9967849018
  O        44.6221795618       35.1006110360        6.7587109205
  O        24.2054148967        0.0000555191        9.3207292121
  O        22.7530829357        2.0585855517       10.5844025196
  O        21.6245540392        3.5961347010        9.3430453223
  O        27.5461273337       18.6937377921        5.4114922432
  O        26.7303671960       16.9919573644        6.6684527847
  O        30.6653666379       19.4057523129        8.0652949104
  O        33.6829690184       16.2866245760        5.7567837408
  O        34.3110441298       18.2416021874        6.7424599104
  O        29.5764751940       17.0652951320        6.5765012582
  O        33.6227267457       16.3293893665       10.4101388416
  O        34.3059582947       18.2483496093        9.4063758562
  O        31.6537834860       18.3161323602       10.1539123063
  O        30.3125859883       15.1450146616        8.0981919450
  O        28.5512705067       21.0289784010        6.9040609353
  O        28.5133975938       20.9584941193        9.4097824344
  O        27.4556229666       18.6789571786       10.6586018844
  O        26.6936120058       16.9288368280        9.4126059696
  O        13.1478088889       18.6932141228       10.5869787445
  O        13.9188740219       16.9161383194        9.4045190374
  O        50.5970483143       19.3505714939        8.0207375566
  O        47.6838981140       16.3267103984       10.4170961057
  O        46.9532288769       18.1761963311        9.3236063652
  O        11.0699146531       17.0154598442        9.4896601277
  O        47.6772132969       16.3342044254        5.6526604719
  O        46.9363127834       18.2347106886        6.6681451791
  O        49.5694345853       18.3176471921        5.9823789002
  O        10.3187988526       15.0999146412        7.9970777789
  O        52.6707971886       21.0279296056        9.2418359166
  O        12.1468971444       20.8912605106        6.6732228557
  O        13.1077499767       18.6138254881        5.3255592461
  O        13.9570695127       16.9871889478        6.6648180846
  O        29.9907901712       14.4428350487       10.7354308327
  O        28.0889311616       14.6547488526        9.4950509390
  O        32.1437584906       16.8596341056        8.0880027310
  O        30.9678623569       20.9573259600       10.4055220323
  O        32.9486224101       20.6024656098        9.3379098365
  O        29.5680636010       17.0774951625        9.5764503478
  O        30.8500887202       20.8799405400        5.6513829871
  O        32.8686500817       20.5891030571        6.6638973059
  O        31.6802453062       18.2525635984        5.9933396732
  O        28.2888479070       18.6796875041        8.0709340873
  O        32.4940060532       14.2129260800        9.3339564007
  O        32.4114088395       14.2043281733        6.8339323229
  O        29.9053118133       14.4433729632        5.5016847996
  O        28.0063121255       14.6525136451        6.7424357523
  O        17.8892527783        1.9666330690       10.6628139984
  O        18.9562272455        3.5271642323        9.4079385430
  O        39.1685865498       34.1386977321        7.9971603048
  O        43.2801700239       33.0590277869       10.3316865847
  O        42.0344123083       31.5064377847        9.2416371458
  O        20.3178885486        1.0369425650        9.4800430577
  O        43.2760172408       33.1826226125        5.5749044568
  O        42.0052069247       31.5841052030        6.5829731340
  O        40.5789161488       33.7749795179        5.9358977911
  O        22.3675912674        1.3848649499        7.9979122803
  O        36.6728349041       35.0997074064        9.2333429597
  O        16.4457616743        0.0641916960        6.6682369933
  O        17.9365479308        2.0433804349        5.3264165413
  O        18.9190462007        3.5931267972        6.6659587392
  O        29.6606778132       18.8317948135        3.9276926535
  O        29.7914949243       19.0413202530       11.9940353074
  O        31.6453948414       16.1134977726        4.2367325595
  O        31.3778803260       16.4144395485       11.9992162646
  O        32.1047029386       16.1883627704        1.4252524004
  O        29.7874444510       17.2812332516        0.9282811876
  O        30.1677708705       15.7616257212       14.2364443036
  O        31.4322317643       18.0990619884       14.8161655265
  O        30.4916351613       19.8628136769        1.7371156218
  O        28.9737189844       18.6923739560       14.4921243904
  O        39.4568122357       35.2437401487        4.0019825747
  O        19.1423049960        0.0047629962       11.9904400640
  O        41.9694835082       35.1727561946        4.0872104323
  O        21.6913200867       -0.0693103310       11.8959044534
  O        51.3650818203       18.6142384261        4.0053309827
  O        10.7510565867       18.7471617032       11.9050729246
  O        50.0798494216       16.4128435105        4.0917205052
  O         9.5239618884       16.4831357316       11.9912687119
 Zr         9.2974666578       16.0522336978        6.1826652894
 Zr        49.8367434423       16.0064214047        9.7463245758
 Zr        22.0737257548        0.0312447264        6.1885687093
 Zr        42.4613665210       35.1544745581        9.8009323078
 Zr        29.6211783494       19.0905612457        6.3198628291
 Zr        29.5749622706       19.1746363612        9.8812942961
 Zr        11.0383017470       19.0518858671        9.8279209887
 Zr        11.0443485517       19.1546174823        6.2509210458
 Zr        31.3554725372       16.0986016179        9.8916876166
 Zr        31.4061599209       15.9871386647        6.3217567655
 Zr        18.6017437822       -0.0006125506        9.7634439480
 Zr        18.5071288763       -0.0070994971        6.2137931333
 Zr        12.3020704827       16.3232905497        7.9901980738
 Zr        48.6185525141       18.8334437894        8.0112718584
 Zr        20.3162297649        2.4747570812        7.9905381632
 Zr        40.6439025060       32.6878275774        7.9779339515
 Zr        28.3420275424       16.3434697084        8.0856227095
 Zr        32.6401909461       18.8331831828        8.0662246587
  H        29.2731871174       15.5341527911        2.7589743644
  H        28.7095712647       18.6797256310        3.7630693313
