     574
 i =      191, E =     -4778.8287417295
  C        11.8584100208       14.0538783565        5.7415971149
  C        12.4560130956       12.8906386583        5.0231619610
  C        11.7045831298       12.1723604311        4.0808859755
  C        12.2808612818       11.1100668805        3.3885158605
  C        13.6211050731       10.7395927789        3.6169154529
  C        14.3539863163       11.4425257225        4.5910367318
  C        13.7811791695       12.5076096589        5.2824874493
  C        14.2606854347        9.6489283516        2.8435664803
  C        14.2565503658        9.6570364960        1.4218539954
  C        13.7437949779       10.7593490167        0.6679192891
  C        49.1267622934       21.2332241884        5.8798359981
  C        48.5500254197       22.4011820366        5.1526213612
  C        49.3000718490       23.0685578358        4.1716969559
  C        48.7331182906       24.1076697092        3.4384867548
  C        47.4025572223       24.5092518716        3.6670810674
  C        46.6715432219       23.8602053533        4.6804197207
  C        47.2339718332       22.8152266577        5.4096833187
  C        46.7723552095       25.5869462685        2.8698331506
  C        46.7614139318       25.5574254760        1.4480370469
  C        47.2611461892       24.4422407283        0.7045966234
  C        14.8604561733        8.5706250865        0.7086504140
  C        14.8909414270        8.5966682787        3.5202199231
  C        49.1131101850       21.2033317369       10.1452549617
  C        48.5277240565       22.3646394356       10.8726671696
  C        49.2669285812       23.0253355615       11.8655858616
  C        48.6905814727       24.0598723075       12.5970556210
  C        47.3602051012       24.4567253555       12.3587431608
  C        46.6397636680       23.8117003682       11.3353274139
  C        47.2132980626       22.7757239417       10.6036250215
  C        46.7217976473       25.5317297125       13.1497101871
  C        46.7336143538       25.5282058016       14.5714461147
  C        47.2488249283       24.4289055400       15.3278122404
  C        40.6285915377       17.1324066403       15.3270865321
  C        40.6588661256       17.1850864129       12.5151322869
  C        11.8827161648       14.0866969154       10.2852931042
  C        12.4720704097       12.9105445017       10.9896161146
  C        11.7146354353       12.1777216619       11.9160048400
  C        12.2810922639       11.0952177882       12.5845341254
  C        13.6196939194       10.7210526087       12.3523751669
  C        14.3575940156       11.4362733087       11.3912866490
  C        13.7922958615       12.5175461359       10.7186008815
  C        14.2533088668        9.6242972973       13.1228031567
  C        14.2526678880        9.6445644491       14.5446471406
  C        13.7432065861       10.7537540586       15.2916594223
  C        22.5094636739        3.2446959482        5.7529687859
  C        23.2189476005        4.3532678385        5.0518921047
  C        24.2194109342        4.0787944999        4.1079290001
  C        24.8401065530        5.1218235501        3.4253888954
  C        24.4759036075        6.4616692640        3.6664601599
  C        23.5029135978        6.7277404978        4.6470360641
  C        22.8780760939        5.6864612888        5.3282644162
  C        25.0767107678        7.5702041523        2.8905791600
  C        25.0623578655        7.5542297787        1.4667796140
  C        24.3674785488        6.5514624683        0.7221302446
  C        38.2966828437       31.9270931291        5.8529972519
  C        37.5543633309       30.8387192633        5.1565249586
  C        36.5951489793       31.1427083746        4.1773218252
  C        35.9676771638       30.1229855100        3.4679489894
  C        36.2811848430       28.7707576147        3.7135104548
  C        37.2076526480       28.4753407094        4.7324620235
  C        37.8401637092       29.4938912170        5.4409208909
  C        35.6752691434       27.6824476809        2.9146608946
  C        35.7007609700       27.7082740824        1.4878190409
  C        36.4135718257       28.7049861779        0.7576780519
  C        25.6904945213        8.6207658795        0.7458087999
  C        25.6604365807        8.6520836844        3.5593370800
  C        38.3285975364       31.9610830314       10.1593508263
  C        37.6081979079       30.8929699529       10.9053459913
  C        36.6923660211       31.2067392038       11.9226072107
  C        36.0820445146       30.1931985258       12.6577219047
  C        36.3679247428       28.8363004474       12.3998917842
  C        37.2617525104       28.5337384684       11.3524260556
  C        37.8764235208       29.5437492236       10.6199639272
  C        35.7523733233       27.7417348361       13.1814387405
  C        35.7401355911       27.7385191959       14.6083221386
  C        36.4317646218       28.7205498578       15.3776654400
  C        46.1356685629       26.6209098161       15.2815498662
  C        46.0877062626       26.5800050887       12.4736670912
  C        22.4600784080        3.2538627183       10.2557621479
  C        23.1551581099        4.3618646387       10.9776496547
  C        24.1570785917        4.0742107890       11.9179769774
  C        24.7854888534        5.1035225181       12.6139773236
  C        24.4320311177        6.4492734050       12.3908196535
  C        23.4531577088        6.7301046951       11.4188818581
  C        22.8198321208        5.7008852691       10.7237647081
  C        25.0623252051        7.5465298715       13.1638325550
  C        25.0555971186        7.5413227840       14.5878677203
  C        24.3618987831        6.5463691149       15.3438496661
  C        26.6398989594       17.7921788274        5.7395523527
  C        25.3501267565       17.8552361570        5.0270448770
  C        25.1016535631       18.8253568156        4.0349866462
  C        23.8852491450       18.8516839766        3.3612802909
  C        22.8622992627       17.9199320851        3.6531895574
  C        23.1021889402       16.9850251444        4.6834912056
  C        24.3218746596       16.9452676893        5.3503641377
  C        21.5911243922       17.9047058341        2.8970511544
  C        21.5865703665       17.8944829073        1.4705559819
  C        22.7854449706       17.7583008069        0.7059147022
  C        34.4285229817       17.2239334983        5.9163765752
  C        35.7087404951       17.1607682077        5.1794448751
  C        35.8948855347       16.2246241757        4.1451354757
  C        37.0734165416       16.2155029843        3.4081166307
  C        38.1124451087       17.1309152031        3.6860631103
  C        37.9307731176       18.0361255881        4.7535063361
  C        36.7466596467       18.0600868187        5.4816901166
  C        39.3629423247       17.1451200133        2.9041687783
  C        39.3629271959       17.1540768784        1.4774861217
  C        38.1651132972       17.2926746123        0.7152073104
  C        20.3382900079       17.9215967101        0.7650075566
  C        20.3637908684       17.8950925814        3.5806239994
  C        34.4835276000       17.2396083106       10.1872849967
  C        35.7832608871       17.1599157760       10.8941222386
  C        35.9825964287       16.2044570186       11.9050285696
  C        37.1653562574       16.1936137165       12.6347943948
  C        38.1858253445       17.1319969855       12.3738160269
  C        37.9952259350       18.0530652650       11.3239866982
  C        36.8080792562       18.0747613706       10.6001402250
  C        39.4244034699       17.1608628357       13.1732812288
  C        39.3942467835       17.1637405107       14.5984401356
  C        38.1793550193       17.2947728618       15.3352310500
  C        35.0927638649       26.6637238892       15.3068687204
  C        35.1715429979       26.6690673228       12.4942688298
  C        26.5679618340       17.8296882741       10.3265378733
  C        25.2550213546       17.8810364755       11.0236090300
  C        24.9984882945       18.8726068202       11.9842090026
  C        23.7807985814       18.8961262409       12.6565320775
  C        22.7874176153       17.9300686302       12.3935618434
  C        23.0379927017       16.9677156516       11.3975618579
  C        24.2566528527       16.9399961976       10.7238068932
  C        21.5265287466       17.9069385079       13.1672629049
  C        21.5542998978       17.8928504801       14.5904803196
  C        22.7708870965       17.7590352802       15.3279952419
  C        14.0461363283       17.8294261915       10.2882156626
  C        15.3501167529       17.8880077210       11.0125646956
  C        15.6014752000       18.8844893779       11.9689629464
  C        16.8096315877       18.9053954073       12.6625406950
  C        17.8022826640       17.9336683065       12.4212184719
  C        17.5555698811       16.9624497616       11.4318828364
  C        16.3463189960       16.9361094808       10.7407966359
  C        19.0709002781       17.9157224306       13.1883087919
  C        19.0726323267       17.9116581164       14.6130984475
  C        17.8693111300       17.8112350234       15.3760767619
  C        46.8058844682       17.2198785129       10.1605015631
  C        45.5199672737       17.1628446348       10.9085001607
  C        45.3199881329       16.1991250760       11.9096190967
  C        44.1419835444       16.1896791003       12.6505699388
  C        43.1309364463       17.1419114846       12.4114353721
  C        43.3288574745       18.0841259325       11.3828952990
  C        44.5082798929       18.0991798983       10.6443815728
  C        41.8791693351       17.1591444618       13.1974466436
  C        41.8792115527       17.1479269303       14.6234351317
  C        43.0813730111       17.2407568829       15.3854378579
  C        20.3214995078       17.9196847296       15.3190812343
  C        20.2933218399       17.8945484085       12.5037442096
  C        46.7819565033       17.2290379675        5.8923427482
  C        45.4752614040       17.1203928314        5.1877231851
  C        45.2573649723       16.1364721409        4.2104459387
  C        44.0674752296       16.1161181343        3.4881434167
  C        43.0615079927       17.0746405058        3.7252376541
  C        43.2683581926       18.0229838014        4.7456868828
  C        44.4600998173       18.0514111099        5.4620933222
  C        41.8188036474       17.1099580227        2.9263365724
  C        41.8484266818       17.1214551089        1.5004669426
  C        43.0664240311       17.2258516984        0.7654091509
  C        46.1534641183       26.6373689596        0.7263121784
  C        46.1622271309       26.6559527095        3.5359442932
  C        14.0472349297       17.8300501202        5.7078124746
  C        15.3703934116       17.8986459789        5.0179894069
  C        15.6529758634       18.9119265485        4.0894407423
  C        16.8841593058       18.9420582622        3.4376184925
  C        17.8630369467       17.9580275393        3.6864907600
  C        17.5866895979       16.9734521268        4.6529828699
  C        16.3578692505       16.9431725906        5.3090282357
  C        19.1310712783       17.9262166557        2.9176058092
  C        19.1041087609       17.9164476006        1.4924157145
  C        17.8852464348       17.8133364282        0.7544267662
  C        28.8045368396       14.0848309342       10.3926509858
  C        28.1964561836       12.9089086218       11.0691288584
  C        28.9169758915       12.1724281796       12.0225397160
  C        28.3174339801       11.0986605949       12.6736230427
  C        26.9833473913       10.7345840209       12.3961423684
  C        26.2876091885       11.4480935122       11.4028075964
  C        26.8836437683       12.5235457836       10.7504921220
  C        26.3139205448        9.6582680808       13.1581715627
  C        26.3026313399        9.6868092583       14.5802733602
  C        26.7992010523       10.8025439402       15.3232054143
  C        32.1718436173       21.2580720607       10.1560428616
  C        32.7554074784       22.4279562146       10.8589875885
  C        32.0083944753       23.0958762673       11.8444708495
  C        32.5761203751       24.1343664962       12.5732279669
  C        33.9064872995       24.5405105097       12.3401751070
  C        34.6307055285       23.8959200208       11.3171242920
  C        34.0680362602       22.8493579892       10.5910952061
  C        34.5340062966       25.6080853415       13.1459860149
  C        34.5035865892       25.5823664574       14.5716705075
  C        33.9914051002       24.4699275901       15.3040589336
  C        25.6918615892        8.6105823339       15.3008533250
  C        25.6745233456        8.6087145333       12.4863930127
  C        32.0775332780       21.2076562869        5.8790454803
  C        32.6343386534       22.3643376134        5.1485175763
  C        31.9152007158       22.9920977819        4.1126612416
  C        32.4911583752       24.0237268752        3.3786092578
  C        33.7992554569       24.4801067809        3.6600954743
  C        34.4900584956       23.8757258971        4.7337863150
  C        33.9271993200       22.8309128774        5.4556328239
  C        34.4423129026       25.5552631847        2.8810047696
  C        34.4548896870       25.5571571116        1.4529959410
  C        33.9682743568       24.4587000409        0.6839052189
  C        40.6125310272       17.1229185026        0.7728470748
  C        40.5869781674       17.1481087872        3.5855982922
  C        28.7061417369       14.0924704488        5.7781297314
  C        28.1041345932       12.9564701956        5.0485929241
  C        28.8351094525       12.2540428290        4.0727441577
  C        28.2530628097       11.1951979009        3.3849139417
  C        26.9236396526       10.7988256794        3.6469956430
  C        26.2141937354       11.4810108305        4.6566534140
  C        26.7905587736       12.5450600307        5.3427287977
  C        26.2834788138        9.7089823124        2.8807708487
  C        26.2887028565        9.7121489892        1.4568662984
  C        26.7892434153       10.8158109167        0.7001063760
  C        18.1351735629        3.1804376245       10.3171321065
  C        17.4055222128        4.2777729311       11.0156549464
  C        16.3910881781        3.9992229049       11.9444814581
  C        15.7432102300        5.0391134444       12.6080077644
  C        16.0936536917        6.3829951888       12.3670876641
  C        17.0815257460        6.6526240260       11.4017882715
  C        17.7307718413        5.6153774639       10.7367361022
  C        15.4695331648        7.4907534534       13.1301423692
  C        15.4854042950        7.4903963169       14.5518524401
  C        16.1872425926        6.4970014026       15.3050724876
  C        42.9458292477       31.8592840479       10.0727874950
  C        43.6462429149       30.7717811471       10.8167613071
  C        44.5914995142       31.0930993313       11.8031102897
  C        45.1970942602       30.0875580057       12.5508239134
  C        44.8709796950       28.7344382987       12.3356945328
  C        43.9453651373       28.4201482269       11.3222646979
  C        43.3365213999       29.4252845142       10.5742618165
  C        45.4885426892       27.6551872896       13.1388921105
  C        45.4928049057       27.6809407801       14.5606143236
  C        44.8053359332       28.6887056172       15.3072254311
  C        14.8566334447        8.5630215385       15.2642044991
  C        14.8739435114        8.5623966570       12.4515753163
  C        42.9462837039       31.9612729982        5.8091263322
  C        43.6916002107       30.8853208378        5.0956776804
  C        44.6557447038       31.1912639048        4.1229231929
  C        45.2771926812       30.1716958182        3.4051721648
  C        44.9539178688       28.8213026407        3.6432073314
  C        44.0208628805       28.5236623515        4.6544034341
  C        43.3925463076       29.5403966288        5.3665571511
  C        45.5629524821       27.7239933036        2.8579389973
  C        45.5332962276       27.7174188147        1.4366056368
  C        44.8266005710       28.7073475509        0.6836498497
  C        35.0701386017       26.6496253038        0.7537319598
  C        35.0734262286       26.6034866641        3.5675979181
  C        18.1482681627        3.2464612292        5.7067291962
  C        17.4293796145        4.3434371431        4.9975271922
  C        16.4152469429        4.0520906309        4.0728462813
  C        15.7668650321        5.0826842541        3.3974227221
  C        16.1203203978        6.4280529913        3.6212381634
  C        17.1103890507        6.7114860220        4.5798515003
  C        17.7580985382        5.6825902483        5.2596089334
  C        15.4900915255        7.5238294167        2.8487335639
  C        15.4964877783        7.5074292181        1.4275913720
  C        16.1934956206        6.5058868807        0.6808876308
  H        10.6727176491       12.4672072891        3.9034329452
  H        11.6947297731       10.5521418157        2.6614203014
  H        15.3907616922       11.1673107112        4.7732824764
  H        14.3502599491       13.0705094231        6.0184784494
  H        13.3769349010       11.6315371103        1.2012442264
  H        50.3227417193       22.7483778905        3.9869921677
  H        49.3194764555       24.6228351011        2.6807503786
  H        45.6419155919       24.1606729125        4.8633050837
  H        46.6628178574       22.2894857892        6.1713301828
  H        47.6292456623       23.5756816049        1.2462937490
  H        14.8706147618        8.5876507515        4.6085159251
  H        50.2869079839       22.7022908190       12.0605194310
  H        49.2688288256       24.5751847911       13.3607577426
  H        45.6102751350       24.1087415687       11.1464275482
  H        46.6523941967       22.2531996679        9.8323636646
  H        47.6071343836       23.5515777424       14.7969362060
  H        40.6706737250       17.1569774632       11.4271899824
  H        48.6866780456       14.0953785064        7.7997854825
  H        10.6813386777       12.4673260976       12.0936160294
  H        11.6893426801       10.5251967456       13.2975662876
  H        15.3928874741       11.1580123798       11.2051580572
  H        14.3644500238       13.0869014909        9.9899057554
  H        13.3765060869       11.6223775420       14.7529322496
  H        47.9294907465       14.2215884583        9.7099573917
  H        47.7806002080       14.3777521435        6.4948415925
  H        49.0823251187       18.5517069058       10.8668645606
  H        10.4153064079       14.1344865794        7.9984508455
  H        24.4880314111        3.0416767930        3.9194766860
  H        25.6161923661        4.9085852768        2.6935118096
  H        23.2125618848        7.7587136270        4.8384186903
  H        22.1044876458        5.8818392705        6.0668620870
  H        23.8050677230        5.7955452748        1.2623811638
  H        36.3670588229       32.1863098916        3.9738250710
  H        35.2262568079       30.3644979107        2.7095240608
  H        37.4599496676       27.4356799763        4.9308595822
  H        38.5821772039       29.2705282655        6.2039146043
  H        36.9826673767       29.4493817073        1.3066351087
  H        25.6847252939        8.6410390554        4.6475871575
  H        36.4795312483       32.2522948814       12.1335480895
  H        35.3668904089       30.4448752106       13.4376708946
  H        37.4984789232       27.4920650980       11.1460080766
  H        38.5890177648       29.3117131498        9.8321428679
  H        37.0158151601       29.4759526138       14.8601045635
  H        46.1088875085       26.5872189886       11.3856248687
  H        44.6674273837       35.1157441522        7.8141865653
  H        24.4331719421        3.0354482174       12.0845096580
  H        25.5658625654        4.8745037557       13.3365639195
  H        23.1683748074        7.7648723040       11.2396464204
  H        22.0475158365        5.9131330329        9.9880553666
  H        23.7945245093        5.7873903708       14.8131534266
  H        44.9510569733       34.3878415895        9.6935681962
  H        44.8988141577       34.2055825837        6.4909206127
  H        40.6637346049       33.2069396076       10.8520320995
  H        23.1501638920        1.9569307091        8.0046987773
  H        25.8679250918       19.5652997397        3.8157159472
  H        23.7031694668       19.6114061452        2.6042323645
  H        22.3291204914       16.2583565903        4.9254083012
  H        24.5097528269       16.2029012849        6.1224110393
  H        23.7257518690       17.6172411696        1.2302758938
  H        35.1022095089       15.5104723418        3.9340418552
  H        37.2144167291       15.4829140998        2.6165495654
  H        38.7206735908       18.7501166743        4.9772580632
  H        36.5954066769       18.7809337302        6.2817922829
  H        37.2253217337       17.4346884584        1.2404140690
  H        20.3710822300       17.9274560941        4.6688822410
  H        35.1896606762       15.4906238941       12.1150045417
  H        37.3178488058       15.4523808145       13.4160171070
  H        38.7752179633       18.7822183179       11.1149435516
  H        36.6417963376       18.8104914115        9.8169497982
  H        37.2508142453       17.4358503865       14.7899934590
  H        35.1606011369       26.6930196874       11.4061400354
  H        28.5027276418       21.0874379514        8.0119527643
  H        25.7656402261       19.6167652331       12.1857869674
  H        23.5815668223       19.6677684548       13.3969600862
  H        22.2799873752       16.2161038377       11.1867573551
  H        24.4640100420       16.1819148653        9.9724335573
  H        23.6994565101       17.6208587876       14.7824325871
  H        29.0009301963       21.7231021576        9.7580473793
  H        29.1080948257       21.7674080874        6.6128399469
  H        32.0880416651       18.5856900526       11.0047868177
  H        27.3989158078       19.0723618339        8.0859100812
  H        14.8389549603       19.6379856011       12.1531697981
  H        17.0001963765       19.6840753494       13.3979669437
  H        18.3106059927       16.2035438466       11.2371288013
  H        16.1439615333       16.1721851416        9.9938182188
  H        16.9249371731       17.6985629658       14.8517188228
  H        46.1054885866       15.4714343654       12.0994543626
  H        43.9880319626       15.4347666026       13.4183682453
  H        42.5583010076       18.8288768456       11.1949472279
  H        44.6773786488       18.8423529921        9.8687137554
  H        44.0256145551       17.3586270499       14.8617821154
  H        20.2835765856       17.9266269645       11.4156318090
  H        46.0375905973       15.4036470708        4.0175774264
  H        43.9040000914       15.3543834433        2.7290056414
  H        42.4991017472       18.7682781926        4.9368333480
  H        44.6406473280       18.8062807722        6.2234163381
  H        43.9995189524       17.3310789919        1.3109666401
  H        46.1988441207       26.6823283478        4.6234006440
  H        52.7407451423       21.0622353673        8.1946164327
  H        14.8977034754       19.6703336498        3.8949157989
  H        17.1002316070       19.7313827291        2.7207914697
  H        18.3309548081       16.2054138539        4.8534212956
  H        16.1311338203       16.1695347214        6.0386383432
  H        16.9523904940       17.7026189660        1.2990082875
  H        52.3199753018       21.6722729077        6.2948056075
  H        52.0108237914       21.7002834264        9.4950206178
  H        49.0655771389       18.6067550485        5.2050720040
  H        13.2475720060       19.0158688391        7.9769837610
  H        29.9448231704       12.4553079135       12.2380243967
  H        28.8763625838       10.5265746725       13.4109693954
  H        25.2579377021       11.1760708792       11.1799239334
  H        26.3406645329       13.0967847122       10.0031396242
  H        27.1584765796       11.6720929511       14.7813862368
  H        30.9873865698       22.7738969862       12.0344037295
  H        31.9928167444       24.6495646240       13.3331435732
  H        35.6586732211       24.1987303727       11.1287528054
  H        34.6395476403       22.3266237493        9.8276705711
  H        33.6447657689       23.5987820559       14.7559990861
  H        25.7019253692        8.5879700701       11.3983188042
  H        30.9043946414       22.6549396933        3.8937769182
  H        31.9242594463       24.5058514534        2.5852373151
  H        35.4988867756       24.2116101365        4.9645943226
  H        34.4789533445       22.3442288151        6.2562456100
  H        33.6052877035       23.5773690014        1.2042102772
  H        40.5785307530       17.1113269932        4.6734200482
  H        32.5218525072       14.1202176136        8.3692308202
  H        29.8672462440       12.5375826947        3.8810498549
  H        28.8284691773       10.6477203502        2.6416170718
  H        25.1878398065       11.1885299907        4.8689240177
  H        26.2341760706       13.0865653132        6.1040924517
  H        27.1391652892       11.6966212464        1.2299860401
  H        33.2899929176       14.1657063290        6.4374295333
  H        33.4091934631       14.4441093684        9.6731978352
  H        32.2829925540       18.6506983265        5.3361368778
  H        30.2293292830       14.1841796641        8.1222289784
  H        16.1202164733        2.9625738276       12.1318723550
  H        14.9547534547        4.8194963565       13.3246904335
  H        17.3624745317        7.6856653412       11.2074027367
  H        18.5115336422        5.8180026649       10.0075126328
  H        16.7537952398        5.7396337346       14.7716067738
  H        44.8274229650       32.1402157888       11.9775284475
  H        45.9365355565       30.3412291226       13.3071988477
  H        43.6826634317       27.3780906145       11.1521107500
  H        42.5997532044       29.1899742758        9.8097303449
  H        44.2293634889       29.4360330528       14.7689654805
  H        14.8495099312        8.5452920968       11.3633714606
  H        44.8987647761       32.2339924215        3.9311121483
  H        46.0235437665       30.4128596619        2.6513789267
  H        43.7640769945       27.4839259066        4.8461510002
  H        42.6460957715       29.3175710380        6.1250502056
  H        44.2674484713       29.4697871443        1.2181992083
  H        35.0361838343       26.6108485848        4.6554423496
  H        36.6048515145       35.1335000157        8.1808949393
  H        16.1451622037        3.0123869914        3.9022342002
  H        14.9754008912        4.8556714925        2.6864297732
  H        17.3926149847        7.7471055749        4.7578993433
  H        18.5398214686        5.8929592275        5.9856387381
  H        16.7649294887        5.7556457050        1.2193255549
  H        36.2801629830       34.4801714524        6.2740219644
  H        36.3834063093       34.2079348597        9.5000776818
  H        40.5770073382       33.1998944415        5.1552585224
  H        17.4705627989        1.9458999075        7.9738791717
  H        29.1550871986       19.2912444001       12.6194037696
  H        29.8280625777       19.5870031763        3.2125506712
  H        31.9632990463       15.8102107282        3.3260919830
  H        31.3016445862       15.4947056714       12.5670004880
  H        28.0749561951       18.0698446707       14.7017189801
  H        29.5462652680       15.1792928264       14.6796512866
  H        31.5169090601       20.1397226230        1.7916558266
  H        33.2028940264       16.8830114278        1.7186917929
  H        28.8610070806       16.6666952799        1.3893640353
  H        32.3041329766       18.5092822957       14.8823654652
  H        18.8533064611        0.8693088674       12.3347421937
  H        40.5277661044       35.2293982565        3.9525485485
  H        42.3210697153       34.4158160014        3.5930707237
  H        22.0874528712        0.6925899074       12.3506822042
  H        11.5975622511       18.7118282427       12.3813056224
  H        52.2653525953       18.4305884724        3.6781800752
  H        49.2540092124       16.4798553516        3.5864808805
  H        10.1509456889       15.7985819768       12.2923479098
  H        50.8500554635       17.6923434983        3.9545939223
  H        10.0458193854       17.3947264768       12.0519435889
  H        20.2136256983        0.0016783347       12.0422732982
  H        39.1834045473       36.1244827277        3.6868431718
 Ni        31.0257379767       17.7678637984        2.9936012125
 Ni        31.1134228966       16.3143961893        0.3310183936
 Ni        30.0126778478       18.8423364594        0.0856667773
 Ni        30.2692674393       17.4294974004       13.4085142713
  O        10.6498432009       14.3650636346        5.4856629519
  O        12.6132135492       14.6573979320        6.5838480672
  O        49.1480257819       16.8459163123        7.9896170098
  O        50.3503377613       20.9360863440        5.6481559627
  O        48.3485717096       20.5934873428        6.6659207874
  O        11.0516460317       17.0538770197        6.5004530947
  O        50.3211091377       20.8818234909       10.4067952785
  O        48.3467832899       20.5869209243        9.3270823305
  O        49.5436924597       18.2485318967       10.0682214912
  O        12.3589776770       18.6245209763        7.9995957819
  O        48.6929480298       14.1486505316        6.7510930454
  O         8.2096692055       14.2102034584        9.3226010874
  O        10.7353746124       14.5066030579       10.6644367112
  O        12.5718809187       14.5826967123        9.3285016712
  O        22.8451652319        2.0447836397        5.4869455826
  O        21.6044311189        3.5922516559        6.5906106818
  O        42.0575729994       34.1366366115        7.9788907839
  O        37.9813608904       33.1368531568        5.5726105023
  O        39.2178805306       31.5758405476        6.6662641146
  O        20.3081211025        1.0391204315        6.5016594889
  O        38.0252266322       33.1871106528       10.4147863654
  O        39.2185307691       31.5834466387        9.3270786334
  O        40.6521985895       33.7689175425       10.0602525139
  O        18.2555955490        1.3752400390        7.9967898370
  O        44.6222745626       35.1004385735        6.7587014262
  O        24.2054812504       -0.0000940072        9.3208131139
  O        22.7529149786        2.0567774286       10.5833209390
  O        21.6239768226        3.5955588788        9.3416103498
  O        27.5850796055       18.6227333125        5.4084844522
  O        26.7692250951       16.9235258041        6.6680665534
  O        30.6716969558       19.4002824083        8.0916371580
  O        33.5390343239       16.3318119193        5.6604166540
  O        34.2628797331       18.1847178129        6.7470862113
  O        29.5923924049       17.0611040438        6.5875676893
  O        33.6141944624       16.3293604909       10.4155199455
  O        34.3045684769       18.2464650294        9.4104233138
  O        31.6564798958       18.3150272436       10.1764311480
  O        30.3294815688       15.1506103087        8.1449920600
  O        28.5476830789       21.0309643779        6.9163522877
  O        28.5160003127       20.9548610011        9.4096284570
  O        27.4617386276       18.6784661180       10.6621501623
  O        26.6971556095       16.9307042397        9.4140314587
  O        13.1481268903       18.6932337964       10.5872786682
  O        13.9192919708       16.9162631256        9.4047564338
  O        50.5959110794       19.3501449622        8.0201819146
  O        47.6843292701       16.3267365244       10.4170856096
  O        46.9526048707       18.1758357170        9.3241567738
  O        11.0696138105       17.0154439825        9.4897587923
  O        47.6750988213       16.3354578412        5.6529868671
  O        46.9279840384       18.2358771554        6.6652455458
  O        49.5689978051       18.3177951548        5.9822403353
  O        10.3185870613       15.1003591473        7.9970221996
  O        52.6706610861       21.0280409933        9.2418209002
  O        12.1468669355       20.8912341461        6.6730762784
  O        13.1105864759       18.6132235303        5.3251182302
  O        13.9575473267       16.9866829213        6.6655626645
  O        29.9887506163       14.4410233500       10.7372795348
  O        28.0890259483       14.6548199633        9.4953899488
  O        32.1432260197       16.8681732269        8.1422245314
  O        30.9609121464       20.9514740568       10.4121012545
  O        32.9438940794       20.6088273909        9.3519955954
  O        29.5710874302       17.0804722376        9.5821859199
  O        30.8446154326       20.8771648339        5.6586540597
  O        32.8661029753       20.5744933215        6.6671132867
  O        31.6129763397       18.2432682868        5.9088440755
  O        28.2872549070       18.6782490895        8.0822668145
  O        32.4972507211       14.2114598064        9.4090609363
  O        32.4033476939       14.2110752460        6.8328092282
  O        29.8738539777       14.5129714723        5.4159949082
  O        28.0461913813       14.5870867935        6.7548578208
  O        17.8890566246        1.9664253376       10.6628891680
  O        18.9560616648        3.5270586342        9.4080375223
  O        39.1686247393       34.1385815607        7.9970448582
  O        43.2803076712       33.0589352987       10.3316342773
  O        42.0347152980       31.5064044756        9.2415306212
  O        20.3172492070        1.0360771563        9.4807171580
  O        43.2761103118       33.1824950759        5.5749381418
  O        42.0052773153       31.5840391454        6.5830722152
  O        40.5791039260       33.7747865154        5.9358020165
  O        22.3668579914        1.3841159682        7.9978735657
  O        36.6725069696       35.0995656618        9.2334121762
  O        16.4452015316        0.0638385128        6.6681496455
  O        17.9362670139        2.0431394456        5.3263675354
  O        18.9188055746        3.5930247644        6.6659366312
  O        29.5759248311       18.9817310229        3.9904202737
  O        29.8606857949       18.9033923476       12.0616285076
  O        31.2974492815       15.9713698803        4.0781879401
  O        31.3426934940       16.3420298753       12.0831465042
  O        32.3074767172       16.5617362556        1.9112394768
  O        29.6614480290       17.2197503207        1.4119083666
  O        30.3298371312       15.7500579352       14.6551345956
  O        31.4716031618       18.0221574505       14.9907128662
  O        30.7962726929       19.4904445836        1.8322117257
  O        28.9042877262       18.5356716227       14.5088475245
  O        39.4567704317       35.2438009700        4.0019297086
  O        19.1408075795        0.0044206905       11.9908234412
  O        41.9698621461       35.1727782895        4.0873278566
  O        21.6914172635       -0.0694554104       11.8958954112
  O        51.3653719383       18.6142619460        4.0055577504
  O        10.7511498641       18.7472792195       11.9049650458
  O        50.0796245312       16.4128738934        4.0915811413
  O         9.5245774223       16.4831095902       11.9912621731
 Zr         9.2951250950       16.0534163068        6.1823159785
 Zr        49.8348549800       16.0070620261        9.7464710172
 Zr        22.0721693118        0.0279861729        6.1897865651
 Zr        42.4597084461       35.1514759818        9.8004177233
 Zr        29.6163888516       19.1268100517        6.3887564037
 Zr        29.5716999365       19.1681226202        9.9450790944
 Zr        11.0371827634       19.0516816216        9.8274002652
 Zr        11.0432279691       19.1544944500        6.2515276623
 Zr        31.3345369885       16.1043528269        9.9662609029
 Zr        31.4418909650       16.0270561814        6.4333341510
 Zr        18.5998143992       -0.0041327737        9.7638519666
 Zr        18.5056588971       -0.0101538958        6.2133475983
 Zr        12.3010921475       16.3241085388        7.9902930427
 Zr        48.6143186602       18.8324151125        8.0099832504
 Zr        20.3133402490        2.4705714872        7.9908267400
 Zr        40.6407691588       32.6842920121        7.9784987482
 Zr        28.3360141208       16.3366532913        8.0917004843
 Zr        32.6586344593       18.8661499171        8.1109531558
  H        30.5815067453       15.2694581234        4.0931548541
  H        28.6182334686       18.7265324383        3.9418165911
