     576
 i =      196, E =     -4780.0018627819
  C        11.8577031426       14.0541780844        5.7415580528
  C        12.4554915671       12.8903778002        5.0232903004
  C        11.7042400324       12.1725865414        4.0805744256
  C        12.2804812714       11.1102923856        3.3880654546
  C        13.6204774775       10.7393358386        3.6169199534
  C        14.3531397674       11.4417136719        4.5915957993
  C        13.7803127965       12.5067312639        5.2831984798
  C        14.2602492884        9.6487887122        2.8435342574
  C        14.2566727424        9.6570047922        1.4217959593
  C        13.7435027801       10.7591105762        0.6678471111
  C        49.1258996338       21.2336088673        5.8801816801
  C        48.5488711997       22.4011612517        5.1522615152
  C        49.2998564072       23.0702296069        4.1732560938
  C        48.7330129840       24.1094169561        3.4400573701
  C        47.4015604266       24.5089193390        3.6667637062
  C        46.6692400946       23.8577943384        4.6777262111
  C        47.2316138827       22.8126902170        5.4069309814
  C        46.7717286903       25.5869566769        2.8695645476
  C        46.7612545818       25.5578232219        1.4477943841
  C        47.2612916713       24.4426679731        0.7044513890
  C        14.8607882271        8.5706893290        0.7086069155
  C        14.8905282085        8.5965620370        3.5202197457
  C        49.1126677342       21.2033001900       10.1449855215
  C        48.5269444582       22.3642121446       10.8731709937
  C        49.2671689569       23.0271585899       11.8637773391
  C        48.6907285981       24.0617053280       12.5952071459
  C        47.3593290453       24.4561513247       12.3589202895
  C        46.6375064279       23.8085330499       11.3382301292
  C        47.2111380980       22.7724468123       10.6066830503
  C        46.7212028412       25.5315553878       13.1496841831
  C        46.7334073703       25.5284946012       14.5713696322
  C        47.2490685311       24.4293314576       15.3276886271
  C        40.6299629773       17.0982303458       15.3242883638
  C        40.6530764149       17.2172353970       12.5014367663
  C        11.8822491995       14.0869828125       10.2851560111
  C        12.4716514038       12.9100632103       10.9891102950
  C        11.7143815038       12.1776509773       11.9158797012
  C        12.2808798633       11.0953141190       12.5847629415
  C        13.6192180759       10.7206513455       12.3521157460
  C        14.3569476946       11.4354052297       11.3905594955
  C        13.7915069693       12.5164201138       10.7175072669
  C        14.2531636818        9.6241736334       13.1227137138
  C        14.2527907565        9.6444889956       14.5445825781
  C        13.7429773472       10.7535167689       15.2915896318
  C        22.5101673599        3.2436959726        5.7528694660
  C        23.2231894749        4.3508445154        5.0514870154
  C        24.2222234575        4.0722437299        4.1073487536
  C        24.8476820448        5.1126779435        3.4248458551
  C        24.4891728633        6.4536424192        3.6665527511
  C        23.5174978821        6.7240727471        4.6470914242
  C        22.8876815781        5.6852645258        5.3279442824
  C        25.0949466338        7.5603680449        2.8908799800
  C        25.0706716745        7.5520433423        1.4691113937
  C        24.3690138404        6.5520874535        0.7233593485
  C        38.2973975166       31.9271779743        5.8515675697
  C        37.5552828548       30.8398577097        5.1516673304
  C        36.5924236986       31.1474042696        4.1772446702
  C        35.9624757694       30.1303900952        3.4658347417
  C        36.2776304879       28.7775960393        3.7047421298
  C        37.2090286725       28.4780681922        4.7178078622
  C        37.8436977030       29.4940958774        5.4284905848
  C        35.6665650504       27.6916887670        2.9053390860
  C        35.6926583012       27.7158293573        1.4801410356
  C        36.4049118975       28.7139221022        0.7482243421
  C        25.6972617677        8.6196186887        0.7486076926
  C        25.6896695782        8.6368532405        3.5611538786
  C        38.3285363359       31.9612593336       10.1586016631
  C        37.6080372889       30.8920312937       10.9042511906
  C        36.6826806156       31.2049497654       11.9127885523
  C        36.0703075966       30.1905863831       12.6453972334
  C        36.3655003540       28.8348506598       12.3937094636
  C        37.2694949484       28.5324845218       11.3555784956
  C        37.8851891973       29.5434521068       10.6250209161
  C        35.7489289369       27.7401277429       13.1752560919
  C        35.7353498611       27.7401006805       14.6005053222
  C        36.4240185880       28.7266829265       15.3693873966
  C        46.1356887140       26.6213693986       15.2813721194
  C        46.0868290791       26.5795096078       12.4734821252
  C        22.4598941000        3.2548433799       10.2568969998
  C        23.1538459095        4.3645954507       10.9804988617
  C        24.1604538462        4.0788781333       11.9162230563
  C        24.7884895763        5.1092198398       12.6120582855
  C        24.4294523522        6.4541474698       12.3937049895
  C        23.4453104628        6.7334962832       11.4268858234
  C        22.8128270766        5.7032096141       10.7317721548
  C        25.0606351647        7.5523527702       13.1674682483
  C        25.0540608306        7.5469314404       14.5901513162
  C        24.3593338649        6.5508620521       15.3465097245
  C        26.6089276402       17.9028804806        5.7811246115
  C        25.3055493227       17.9648686184        5.0570440313
  C        25.0462773173       18.9621333318        4.1031320054
  C        23.8343918024       18.9814268119        3.4149435168
  C        22.8434878919       18.0086501742        3.6602161711
  C        23.0976519810       17.0367667815        4.6468055354
  C        24.3109199677       17.0108337699        5.3311052643
  C        21.5724184822       17.9874552018        2.8938384536
  C        21.5755873626       17.9593176147        1.4716949901
  C        22.7824034020       17.8374911010        0.7129599790
  C        34.4559892269       17.1873961669        5.9522129316
  C        35.7348363564       17.1252939729        5.2158166410
  C        35.9124067460       16.2033036197        4.1660720220
  C        37.0821360922       16.2064719104        3.4167691058
  C        38.1303626816       17.1123909450        3.7038235380
  C        37.9584486676       17.9979769825        4.7927239449
  C        36.7784466579       18.0167759258        5.5247106294
  C        39.3708453708       17.1411137637        2.9198191839
  C        39.3683025582       17.1240404463        1.4771052115
  C        38.1797988568       17.2608111609        0.7258734229
  C        20.3295135293       17.9636542865        0.7622080709
  C        20.3472255362       17.9826670163        3.5756717006
  C        34.4817208515       17.2385036114       10.1815503274
  C        35.7789435283       17.1574543354       10.8900529640
  C        35.9735340467       16.2117105650       11.9119135260
  C        37.1544664205       16.2034772238       12.6426731346
  C        38.1859483629       17.1289110923       12.3665320306
  C        38.0003353596       18.0359032606       11.3005806362
  C        36.8117003595       18.0594908668       10.5819710665
  C        39.4206953369       17.1632890702       13.1591141301
  C        39.3931595877       17.1385526578       14.5996472893
  C        38.1909751550       17.2671113109       15.3319238544
  C        35.0888014973       26.6663075603       15.3000694833
  C        35.1714246235       26.6646080272       12.4888281918
  C        26.5713999567       17.8297550301       10.3234199070
  C        25.2562590644       17.8772545391       11.0260459488
  C        24.9934775559       18.8847412493       11.9668474912
  C        23.7755006853       18.9131389219       12.6397453248
  C        22.7919601892       17.9330130393       12.3980677693
  C        23.0493146226       16.9506680015       11.4244710294
  C        24.2674689330       16.9206203367       10.7484153690
  C        21.5288350938       17.9175016477       13.1714410743
  C        21.5526718468       17.9196456880       14.5929729100
  C        22.7711770726       17.8167556445       15.3366587005
  C        14.0448300729       17.8288365021       10.2874285589
  C        15.3509740783       17.8864466405       11.0126980368
  C        15.6097245209       18.8940993802       11.9544699008
  C        16.8193736530       18.9165831657       12.6463494991
  C        17.8034539982       17.9339467599       12.4175961935
  C        17.5494569737       16.9498036596       11.4439664259
  C        16.3390720867       16.9230551822       10.7539538923
  C        19.0727974794       17.9199029330       13.1860676994
  C        19.0714125666       17.9231450541       14.6085254433
  C        17.8641795087       17.8231658908       15.3692349325
  C        46.8033861309       17.2171033256       10.1580514657
  C        45.5164798828       17.1552239447       10.8955407576
  C        45.3278483723       16.2176675404       11.9249051869
  C        44.1510672566       16.2141240981       12.6646725017
  C        43.1199737839       17.1399575103       12.3928081078
  C        43.3044145628       18.0475985923       11.3273436098
  C        44.4865726748       18.0625796656       10.5964215008
  C        41.8756411499       17.1668684011       13.1763177266
  C        41.8793377531       17.1335731517       14.6179436581
  C        43.0704521062       17.2448215151       15.3695637210
  C        20.3176439630       17.9444478108       15.3173068769
  C        20.2970388594       17.8987994377       12.5044441056
  C        46.7820962224       17.2268439064        5.8930236490
  C        45.4790881650       17.1154757060        5.1932478656
  C        45.2766191431       16.1597666286        4.1831167037
  C        44.0910394138       16.1468461947        3.4573887545
  C        43.0635861843       17.0771697469        3.7289853341
  C        43.2534506066       17.9890016762        4.7892563361
  C        44.4453961529       18.0169742123        5.5014699159
  C        41.8273730560       17.1203233936        2.9355966897
  C        41.8549456433       17.1079079301        1.4939466417
  C        43.0580130319       17.2309447783        0.7638206334
  C        46.1533831767       26.6378254780        0.7261078165
  C        46.1615939897       26.6558629915        3.5357236028
  C        14.0434354446       17.8326790669        5.7090535359
  C        15.3645124705       17.9114093221        5.0151890817
  C        15.6315144082       18.9307491120        4.0892674625
  C        16.8591910048       18.9765147721        3.4321128171
  C        17.8474572189       18.0022127729        3.6765846813
  C        17.5867937466       17.0102690087        4.6393136134
  C        16.3606042983       16.9640056337        5.2992769890
  C        19.1154339149       17.9873932241        2.9078615720
  C        19.0936879848       17.9578712909        1.4862689148
  C        17.8749562583       17.8381532355        0.7454929945
  C        28.8077865132       14.0899289567       10.3876968542
  C        28.1933810356       12.9175360598       11.0735911383
  C        28.9185397352       12.1736367579       12.0162294666
  C        28.3198988700       11.0984049955       12.6673655383
  C        26.9819232666       10.7438287509       12.4010060903
  C        26.2781369718       11.4682502193       11.4221009973
  C        26.8748970110       12.5432016678       10.7682608738
  C        26.3141324491        9.6641605244       13.1632677667
  C        26.3056192888        9.6895004186       14.5842822864
  C        26.8156639839       10.7997996140       15.3294186245
  C        32.1808464656       21.2455919468       10.1423051952
  C        32.7709383982       22.4117659549       10.8578660339
  C        32.0141111298       23.0962571264       11.8231620227
  C        32.5786294590       24.1375780149       12.5519280185
  C        33.9162329195       24.5273644868       12.3384047903
  C        34.6543078521       23.8621524544       11.3400261019
  C        34.0930039570       22.8141336613       10.6130141045
  C        34.5372715921       25.6028070693       13.1422830032
  C        34.5023027301       25.5826995150       14.5663177092
  C        33.9819467583       24.4733441816       15.3002628434
  C        25.6930648984        8.6137821151       15.3038419597
  C        25.6753847261        8.6142949473       12.4906987025
  C        32.0824408231       21.2058178526        5.8780563254
  C        32.6432857896       22.3643946699        5.1360924329
  C        31.9062168527       23.0139983683        4.1296441349
  C        32.4763182503       24.0514611004        3.3956685415
  C        33.7969371641       24.4818872016        3.6496617530
  C        34.5101775470       23.8502467578        4.6892487475
  C        33.9491898970       22.8042156529        5.4139802863
  C        34.4348160162       25.5650131657        2.8714792465
  C        34.4473843675       25.5652442066        1.4461527299
  C        33.9552599453       24.4660883151        0.6788315439
  C        40.6169600446       17.0874738481        0.7701525240
  C        40.5970546758       17.1795803738        3.5935757010
  C        28.7418685732       14.0640699262        5.8208049245
  C        28.1320371270       12.9210151538        5.0813059909
  C        28.8714729634       12.2095078815        4.1229600089
  C        28.2869478904       11.1582982026        3.4208256211
  C        26.9471571422       10.7872998616        3.6547952538
  C        26.2247292602       11.4848011756        4.6412235105
  C        26.8064568822       12.5389253156        5.3426508483
  C        26.3055397722        9.6964673215        2.8825942732
  C        26.3031403894        9.7061749275        1.4610047832
  C        26.8127058240       10.8084644963        0.7054064332
  C        18.1348077368        3.1804993768       10.3168855838
  C        17.4056502572        4.2777188911       11.0157229330
  C        16.3918245988        3.9991281980       11.9452440752
  C        15.7438801277        5.0389881334       12.6087062083
  C        16.0936276244        6.3829444593       12.3670464887
  C        17.0804410613        6.6525890461       11.4006397386
  C        17.7297560559        5.6153774714       10.7356690270
  C        15.4696489464        7.4907178280       13.1301208742
  C        15.4859376687        7.4905345530       14.5518171558
  C        16.1880007930        6.4973524022       15.3050974781
  C        42.9458919926       31.8590531956       10.0728988378
  C        43.6461065360       30.7717325981       10.8165545399
  C        44.5914053432       31.0929383344       11.8029569804
  C        45.1968875984       30.0872864219       12.5505137320
  C        44.8706056019       28.7341578449       12.3354571002
  C        43.9450595592       28.4200189468       11.3218894270
  C        43.3363687026       29.4252109448       10.5738813686
  C        45.4881910647       27.6550070097       13.1387034781
  C        45.4927281859       27.6812576607       14.5603604357
  C        44.8056119394       28.6893053737       15.3069593085
  C        14.8571067993        8.5631330496       15.2641480765
  C        14.8736859724        8.5621683834       12.4515520286
  C        42.9464318259       31.9609769171        5.8089608201
  C        43.6917607423       30.8853293494        5.0959018437
  C        44.6555287732       31.1913528417        4.1227294396
  C        45.2768432555       30.1718096301        3.4049438302
  C        44.9538179233       28.8213346918        3.6431188332
  C        44.0211311242       28.5236678889        4.6546978234
  C        43.3929372339       29.5403401334        5.3669988920
  C        45.5627150333       27.7241310678        2.8576913527
  C        45.5334321323       27.7179865237        1.4363951630
  C        44.8269197286       28.7080170733        0.6833589364
  C        35.0644314133       26.6556439111        0.7463794663
  C        35.0612243537       26.6137345090        3.5591788098
  C        18.1479803190        3.2465785878        5.7069415539
  C        17.4296115836        4.3435099955        4.9974691031
  C        16.4159623769        4.0520861626        4.0722248431
  C        15.7674510286        5.0826603855        3.3969258816
  C        16.1200922129        6.4281638670        3.6213614573
  C        17.1091868540        6.7115629686        4.5810261951
  C        17.7570985351        5.6827683860        5.2607082088
  C        15.4899789254        7.5238834879        2.8487372194
  C        15.4970022417        7.5076406980        1.4276043582
  C        16.1941680266        6.5062112607        0.6809136536
  H        10.6724951863       12.4678158824        3.9029017924
  H        11.6942349629       10.5526441814        2.6608387346
  H        15.3896164547       11.1657807048        4.7744720087
  H        14.3489001268       13.0690614419        6.0200027902
  H        13.3758187234       11.6309272393        1.2012122025
  H        50.3232033051       22.7513480859        3.9901532760
  H        49.3199015821       24.6258804273        2.6836191722
  H        45.6385850757       24.1560501466        4.8584267755
  H        46.6594436895       22.2848213388        6.1663597765
  H        47.6293519050       23.5761862594        1.2463265514
  H        14.8695336338        8.5872393116        4.6085007611
  H        50.2879528901       22.7057546880       12.0571199623
  H        49.2695305332       24.5787164861       13.3573436715
  H        45.6069009854       24.1031024982       11.1515571318
  H        46.6491104102       22.2473824139        9.8379547476
  H        47.6074052443       23.5520652052       14.7966967916
  H        40.6609985439       17.2059946413       11.4131434738
  H        48.6856744544       14.0947001202        7.7993696764
  H        10.6812292339       12.4676781775       12.0937795190
  H        11.6889824546       10.5254675986       13.2978267896
  H        15.3919007283       11.1563618088       11.2036853150
  H        14.3631138102       13.0851520499        9.9878934001
  H        13.3754708802       11.6217486647       14.7527836150
  H        47.9289383886       14.2215811675        9.7095314906
  H        47.7805041558       14.3767168986        6.4932793117
  H        49.0773433960       18.5495517730       10.8653226953
  H        10.4134709819       14.1345549354        7.9985485594
  H        24.4861852222        3.0339813527        3.9186305155
  H        25.6228154372        4.8961173166        2.6929024034
  H        23.2322036447        7.7563096792        4.8393114437
  H        22.1150181227        5.8839392468        6.0666771046
  H        23.8071336056        5.7961227677        1.2641427848
  H        36.3630133797       32.1917164447        3.9789722965
  H        35.2175800426       30.3748221130        2.7117097885
  H        37.4625540375       27.4377130197        4.9110771043
  H        38.5888036868       29.2676095861        6.1875847027
  H        36.9718390796       29.4602804234        1.2968212229
  H        25.7203355501        8.6219192517        4.6491459059
  H        36.4638194599       32.2501991363       12.1190826291
  H        35.3473550993       30.4409029928       13.4186104721
  H        37.5126469091       27.4912005041       11.1545799057
  H        38.6051845771       29.3124309072        9.8436666850
  H        37.0067188737       29.4821614740       14.8502827541
  H        46.1074730409       26.5860959756       11.3854236501
  H        44.6677476860       35.1155287355        7.8138835612
  H        24.4410663837        3.0408220130       12.0798672075
  H        25.5727517532        4.8809322830       13.3307028988
  H        23.1560848443        7.7675361722       11.2505242154
  H        22.0369719639        5.9148213761        9.9995788683
  H        23.7894813246        5.7943528749       14.8147028851
  H        44.9519531879       34.3887158558        9.6941169354
  H        44.9000654496       34.2062014102        6.4902837730
  H        40.6644224289       33.2072595078       10.8523214739
  H        23.1507640912        1.9561107935        8.0053582017
  H        25.8014600004       19.7228122968        3.9188262471
  H        23.6383804869       19.7607697626        2.6815766616
  H        22.3437681301       16.2779964860        4.8466713275
  H        24.5167298050       16.2462872375        6.0765220509
  H        23.7235742625       17.7272045739        1.2435999058
  H        35.1142045454       15.4960128757        3.9513064134
  H        37.2133342010       15.4865487473        2.6120987159
  H        38.7512815925       18.7064535533        5.0231573819
  H        36.6329483459       18.7276362428        6.3348094900
  H        37.2397363607       17.4027124825        1.2503583775
  H        20.3519684504       18.0260804741        4.6634043785
  H        35.1770276792       15.5031148725       12.1268747686
  H        37.3020467888       15.4697477562       13.4317374718
  H        38.7851304508       18.7564535502       11.0803179485
  H        36.6480216670       18.7866994036        9.7902695193
  H        37.2594026336       17.4113689945       14.7932605469
  H        35.1641025643       26.6842634363       11.4005847897
  H        28.5079063727       21.0825017913        7.9824378321
  H        25.7566709101       19.6369365011       12.1529583416
  H        23.5703267346       19.6994488096       13.3629596715
  H        22.2979873775       16.1876074233       11.2315440818
  H        24.4816548148       16.1500379412       10.0117201778
  H        23.7035605749       17.6911494308       14.7943691996
  H        29.0003101429       21.7224008735        9.7619442263
  H        29.1388000644       21.7562417544        6.6194099179
  H        32.1056953525       18.5711965558       10.9768305930
  H        27.4121258068       19.0782605732        8.0756867005
  H        14.8521560550       19.6549638534       12.1287898576
  H        17.0166303429       19.7042615224       13.3703789241
  H        18.2988387377       16.1828039911       11.2592956287
  H        16.1299666998       16.1507447984       10.0175028603
  H        16.9228545639       17.7013042668       14.8411495131
  H        46.1233020607       15.5073513773       12.1375594979
  H        44.0085928627       15.4808377652       13.4550201135
  H        42.5223614853       18.7726167883       11.1121722380
  H        44.6458220186       18.7851070789        9.7994750610
  H        44.0137830882       17.3822068110       14.8495307851
  H        20.2906768566       17.9224633668       11.4161674006
  H        46.0673581143       15.4444261367        3.9689442456
  H        43.9410628105       15.4082408255        2.6733199872
  H        42.4711266123       18.7127438585        5.0077623854
  H        44.6134034176       18.7495752599        6.2870111276
  H        43.9925090213       17.3569237851        1.3022668291
  H        46.1977543851       26.6817822534        4.6232006030
  H        52.7398150313       21.0618358286        8.1942582449
  H        14.8663353571       19.6807233022        3.9012152450
  H        17.0645557342       19.7699097682        2.7166120689
  H        18.3408159305       16.2503760601        4.8340254512
  H        16.1433314632       16.1858398264        6.0270291332
  H        16.9418669670       17.7276380194        1.2898021742
  H        52.3181545859       21.6717776962        6.2958652230
  H        52.0101287642       21.6995106003        9.4951153616
  H        49.0606406539       18.6057333133        5.2068832930
  H        13.2458402367       19.0177642387        7.9769823193
  H        29.9483344796       12.4534595874       12.2258775546
  H        28.8840615594       10.5196485509       13.3955117833
  H        25.2443300641       11.2039101245       11.2093272902
  H        26.3290239571       13.1236826125       10.0285889839
  H        27.1843332543       11.6658287705       14.7879999932
  H        30.9859912929       22.7865957798       11.9945677821
  H        31.9863959588       24.6681957982       13.2942747505
  H        35.6892793814       24.1512837251       11.1688921205
  H        34.6717178996       22.2761981036        9.8655359330
  H        33.6329161599       23.6037331575       14.7510368729
  H        25.7026446788        8.5951952950       11.4026419181
  H        30.8839956646       22.6926651714        3.9397939574
  H        31.8964119971       24.5566256940        2.6260660644
  H        35.5303200259       24.1677160591        4.8953557882
  H        34.5126725674       22.2967465269        6.1934176958
  H        33.5876425231       23.5893603528        1.2037639423
  H        40.5911470064       17.1593217642        4.6818071916
  H        32.5166688136       14.1361073421        8.2690862645
  H        29.9106379723       12.4823433916        3.9534361419
  H        28.8686815255       10.6019664739        2.6889353826
  H        25.1887101134       11.2104565190        4.8293991872
  H        26.2445907665       13.0917952431        6.0918059255
  H        27.1771899429       11.6819108687        1.2379213035
  H        33.3071692802       14.2081958334        6.4569138100
  H        33.4109683924       14.4035264319        9.6108708320
  H        32.2109032440       18.5566540584        5.1679599656
  H        30.2275330942       14.1945516298        8.0737555061
  H        16.1212661181        2.9624796820       12.1330725423
  H        14.9559595766        4.8193361259       13.3259623708
  H        17.3605032771        7.6856981222       11.2053900447
  H        18.5094974514        5.8180610117       10.0053830797
  H        16.7545883694        5.7399885626       14.7716776461
  H        44.8275974985       32.1399831274       11.9773908209
  H        45.9363890196       30.3407703978       13.3068884590
  H        43.6824034958       27.3779569609       11.1516205198
  H        42.5999190910       29.1897439234        9.8090946725
  H        44.2296055290       29.4366193673       14.7687298730
  H        14.8486875549        8.5447910738       11.3633648702
  H        44.8983534306       32.2340722993        3.9306738279
  H        46.0227866535       30.4129701385        2.6507552861
  H        43.7644368191       27.4838999037        4.8464544459
  H        42.6468254047       29.3172405323        6.1257404172
  H        44.2678447580       29.4705744878        1.2178087917
  H        35.0251083103       26.6190012596        4.6470834643
  H        36.6047808612       35.1337419391        8.1808600472
  H        16.1461869749        3.0123764456        3.9011778460
  H        14.9764882376        4.8555793777        2.6853928557
  H        17.3904949213        7.7472867874        4.7599066779
  H        18.5379069297        5.8932703017        5.9876724572
  H        16.7656301536        5.7559845418        1.2193327823
  H        36.2791550122       34.4811309106        6.2737882257
  H        36.3820135140       34.2084859422        9.4999868928
  H        40.5775754256       33.1997358593        5.1550053063
  H        17.4707587049        1.9460093664        7.9742752806
  H        29.0569885652       19.3539165033       12.4770238156
  H        28.7743221805       19.0886597454        3.7839098752
  H        31.0918898866       15.1405702155        3.8491966370
  H        31.1409658202       15.4732134270       12.4248603381
  H        28.0973538258       18.0579052998       14.8472161791
  H        28.9970930242       15.5014776082       14.5944281514
  H        31.2850744727       20.6090298613        1.4899856945
  H        32.1908990601       16.2372948867        2.2972339203
  H        28.2000089342       16.3820724592        3.6471879044
  H        32.3963203325       18.2508421980       14.3517926550
  H        18.8532191950        0.8695184205       12.3344135324
  H        40.5276852328       35.2293738721        3.9524464136
  H        42.3213012613       34.4159789494        3.5929747124
  H        22.0883858408        0.6915391466       12.3515054723
  H        11.5978917807       18.7126181644       12.3807824565
  H        52.2642647964       18.4290634308        3.6789332758
  H        49.2529983912       16.4821920852        3.5884680538
  H        10.1511893546       15.7984909222       12.2919097231
  H        50.8481197328       17.6918366009        3.9552280984
  H        10.0452217095       17.3943935509       12.0521620968
  H        20.2138174674        0.0020163527       12.0423312810
  H        39.1830737611       36.1244211252        3.6869579157
 Ni        30.0093161328       17.1348028054        3.1646867094
 Ni        30.8974501102       16.4305456565       -0.0778089057
 Ni        30.1852349457       18.9858678540       -0.4088187011
 Ni        30.0999680530       17.4256983722       13.2364788865
  O        10.6496382904       14.3649160874        5.4854532598
  O        12.6131396635       14.6574070005        6.5838032979
  O        49.1480570425       16.8460228161        7.9897892060
  O        50.3499244286       20.9371489457        5.6484333449
  O        48.3484399054       20.5937543063        6.6660046510
  O        11.0502866363       17.0544546543        6.5001500172
  O        50.3209507428       20.8819426415       10.4068243515
  O        48.3466709692       20.5871660335        9.3271137818
  O        49.5433981350       18.2486873452       10.0684939218
  O        12.3583046144       18.6243549990        7.9997291679
  O        48.6928759815       14.1483938775        6.7509499220
  O         8.2095028758       14.2098971271        9.3226623235
  O        10.7353328474       14.5063876933       10.6644191574
  O        12.5717511468       14.5827005831        9.3282834902
  O        22.8450034963        2.0438232342        5.4868953478
  O        21.6054639542        3.5925896297        6.5900018231
  O        42.0576275775       34.1364726210        7.9788698819
  O        37.9812103540       33.1369219099        5.5727483515
  O        39.2172340704       31.5752540070        6.6658514430
  O        20.3082161295        1.0389976613        6.5017298598
  O        38.0252955404       33.1868312261       10.4149649538
  O        39.2187231208       31.5833397452        9.3271778407
  O        40.6520756282       33.7688549690       10.0602701918
  O        18.2557017226        1.3751686702        7.9967978009
  O        44.6221889530       35.1005077100        6.7585939799
  O        24.2053507275        0.0000343632        9.3209326925
  O        22.7531914023        2.0579767761       10.5839766805
  O        21.6243170371        3.5963281312        9.3425009824
  O        27.5166224523       18.7650209969        5.4787534140
  O        26.7353490719       16.9918188863        6.6630708169
  O        30.6826219997       19.3552566946        8.0492857105
  O        33.5890910086       16.2676992489        5.7379355795
  O        34.2738141428       18.1818955883        6.7437258626
  O        29.5795714579       17.0630439274        6.5594828434
  O        33.6122383170       16.3270669475       10.4091416965
  O        34.3047495590       18.2459617787        9.4073096889
  O        31.6572333305       18.3109448362       10.1559852965
  O        30.3270733447       15.1606907907        8.0831632682
  O        28.5547732984       21.0312383627        6.9053836281
  O        28.5151703433       20.9566219084        9.4094819401
  O        27.4595582120       18.6787377280       10.6584566207
  O        26.6959257702       16.9293853859        9.4114886790
  O        13.1490582180       18.6930541130       10.5876885227
  O        13.9197140923       16.9157985516        9.4048652171
  O        50.5946231105       19.3501263727        8.0205781329
  O        47.6856870348       16.3263179033       10.4169030076
  O        46.9534946693       18.1755968163        9.3233087330
  O        11.0688335727       17.0156898597        9.4902687103
  O        47.6787412968       16.3345910389        5.6530092587
  O        46.9306760684       18.2350294825        6.6660959331
  O        49.5679075935       18.3179934265        5.9820488405
  O        10.3180435105       15.1005348471        7.9968671215
  O        52.6705133400       21.0277790359        9.2418420133
  O        12.1467012448       20.8911339034        6.6730525249
  O        13.1074039589       18.6140360318        5.3251611761
  O        13.9580089211       16.9871003534        6.6642694248
  O        29.9918873164       14.4395512256       10.7258113341
  O        28.0889346510       14.6559854389        9.4909737606
  O        32.1407758984       16.8617541002        8.0771090717
  O        30.9661166063       20.9531210693       10.4039159651
  O        32.9479133185       20.6013958122        9.3376301866
  O        29.5691035539       17.0745687222        9.5750650321
  O        30.8515292080       20.8853238863        5.6588885141
  O        32.8707981804       20.5838229934        6.6649207087
  O        31.6758788164       18.2416709278        5.9126503429
  O        28.2971755231       18.6786556527        8.0731887343
  O        32.4948987807       14.2119096033        9.3338368919
  O        32.4060946540       14.2077789612        6.8229566497
  O        29.9182150712       14.4390113422        5.4881801643
  O        28.0383486459       14.5943157502        6.7490702388
  O        17.8893324696        1.9664084283       10.6630007275
  O        18.9564319461        3.5269323428        9.4082138506
  O        39.1687401919       34.1384404943        7.9970465172
  O        43.2802151948       33.0589725803       10.3315430927
  O        42.0344899031       31.5064973140        9.2414933979
  O        20.3174148832        1.0362161529        9.4806878016
  O        43.2760498399       33.1825146484        5.5750640122
  O        42.0052155420       31.5841386754        6.5831433387
  O        40.5787945640       33.7744889558        5.9356765367
  O        22.3668426321        1.3841589634        7.9979320311
  O        36.6726120834       35.0995893225        9.2333783648
  O        16.4453200824        0.0639118974        6.6682056551
  O        17.9366620393        2.0432605653        5.3261066644
  O        18.9193043070        3.5930599787        6.6657491590
  O        29.7372897605       18.9669923318        3.9106048041
  O        29.8186367263       18.9781382390       11.9920755565
  O        31.4309265166       16.0453604630        4.0013638018
  O        31.3355492756       16.3359281257       12.0091639737
  O        32.4512781443       16.3424031428        1.3359654196
  O        29.7001901648       16.1206345830        1.5014397124
  O        29.9124469735       15.7577719472       14.4005177801
  O        31.5245742338       17.9421786830       14.6495390408
  O        30.9202512873       19.7107191615        1.4151077816
  O        28.7657243854       18.6094486281       14.4062423877
  O        39.4567386969       35.2438084049        4.0020097561
  O        19.1410765031        0.0046262314       11.9907640301
  O        41.9698895834       35.1728585229        4.0872730303
  O        21.6914248664       -0.0694328746       11.8957600695
  O        51.3644956780       18.6141567840        4.0055193761
  O        10.7513670266       18.7476729739       11.9047955876
  O        50.0800479044       16.4130714412        4.0911356816
  O         9.5246457375       16.4830405964       11.9914749866
 Zr         9.2899974490       16.0534149354        6.1817814046
 Zr        49.8303989543       16.0072670016        9.7469174355
 Zr        22.0722730905        0.0268843351        6.1897174120
 Zr        42.4599073761       35.1506907710        9.8003672431
 Zr        29.6318359848       19.1077614156        6.3012766842
 Zr        29.5886834895       19.1761555825        9.8740912174
 Zr        11.0333813671       19.0520524741        9.8264155474
 Zr        11.0387605536       19.1548929322        6.2526894203
 Zr        31.3625196067       16.0984229663        9.8882319256
 Zr        31.4334582952       16.0124036966        6.3114926576
 Zr        18.5999890532       -0.0040270266        9.7637356276
 Zr        18.5055425897       -0.0101183144        6.2132808429
 Zr        12.2954145071       16.3243543768        7.9896889051
 Zr        48.6085049904       18.8308129131        8.0100910097
 Zr        20.3130841124        2.4702080865        7.9907234030
 Zr        40.6414971149       32.6837835545        7.9782529490
 Zr        28.3501314942       16.3520675597        8.0911074596
 Zr        32.6681898267       18.8382438846        8.0646413827
  H        28.5177393026       16.4077731931        4.3465486412
  H        29.3440355001       15.2244450672        1.6067453732
  H        33.2251967289       16.9279302378        1.3225120686
  H        30.4814571969       19.5182677300        2.3033153530
