     576
 i =      201, E =     -4780.0365826258
  C        11.8587845892       14.0534528173        5.7416092959
  C        12.4562566733       12.8904999509        5.0233425011
  C        11.7046233686       12.1717094740        4.0815301878
  C        12.2810058230       11.1095189254        3.3891659422
  C        13.6215404035       10.7396406942        3.6170108222
  C        14.3546368610       11.4430808205        4.5906272596
  C        13.7817503383       12.5080480126        5.2821427365
  C        14.2610907266        9.6489991341        2.8436047434
  C        14.2564920725        9.6569709634        1.4219048539
  C        13.7433913132       10.7591260445        0.6679938521
  C        49.1268398364       21.2332421847        5.8796233743
  C        48.5501603929       22.4011827827        5.1525551989
  C        49.3002074124       23.0685540786        4.1716027566
  C        48.7332735095       24.1077074014        3.4384235356
  C        47.4027207608       24.5093408877        3.6670386837
  C        46.6717638667       23.8604406175        4.6805385552
  C        47.2342271606       22.8155330386        5.4098652010
  C        46.7724558745       25.5870346054        2.8697812912
  C        46.7614602392       25.5574126495        1.4480220296
  C        47.2614443514       24.4423492136        0.7045190114
  C        14.8604164257        8.5706268006        0.7086344973
  C        14.8917879589        8.5969983064        3.5202505218
  C        49.1133011906       21.2035463342       10.1453798537
  C        48.5279509927       22.3648931494       10.8725309973
  C        49.2671475067       23.0256454266       11.8654488430
  C        48.6907841968       24.0601877611       12.5968989728
  C        47.3603569345       24.4569272897       12.3586571394
  C        46.6399797913       23.8120170344       11.3351066504
  C        47.2135745018       22.7761333496       10.6033338694
  C        46.7218610304       25.5318653357       13.1496752284
  C        46.7336216075       25.5282204484       14.5713774456
  C        47.2491536395       24.4290499167       15.3277592896
  C        40.6365742449       17.1643858206       15.3241459580
  C        40.6559015049       17.1897637952       12.5153884742
  C        11.8830190570       14.0865270269       10.2855249661
  C        12.4723617713       12.9107420718       10.9897428111
  C        11.7148908155       12.1775781635       11.9159160617
  C        12.2814936822       11.0951323734       12.5843370283
  C        13.6202913431       10.7213654043       12.3524102053
  C        14.3582147113       11.4368653763       11.3915133619
  C        13.7927542318       12.5180244347       10.7188365091
  C        14.2539414382        9.6246352864       13.1228149936
  C        14.2526913666        9.6446306417       14.5446550788
  C        13.7428731868       10.7536035995       15.2917370116
  C        22.5126160790        3.2442712159        5.7538361387
  C        23.2293250044        4.3494407517        5.0558553227
  C        24.2260735961        4.0687595295        4.1096157055
  C        24.8546650639        5.1079688665        3.4284456640
  C        24.5023627283        6.4499720593        3.6737168940
  C        23.5341756658        6.7222141442        4.6573045393
  C        22.9007978845        5.6847887177        5.3367123759
  C        25.1076858559        7.5564265590        2.8975030145
  C        25.0729874311        7.5515683394        1.4761666422
  C        24.3673176674        6.5533840201        0.7317947542
  C        38.2995571532       31.9283281698        5.8514472101
  C        37.5622820491       30.8390443103        5.1485136563
  C        36.6004844482       31.1438673064        4.1730076506
  C        35.9757789135       30.1241875197        3.4602519958
  C        36.2976536840       28.7739496031        3.7005133268
  C        37.2284551278       28.4766509466        4.7138161077
  C        37.8574354716       29.4951737451        5.4255805774
  C        35.6920429871       27.6839105908        2.9020472943
  C        35.7324696209       27.6974603570        1.4805755006
  C        36.4464319986       28.6969709765        0.7469036319
  C        25.6923553947        8.6226410305        0.7549707791
  C        25.7099309096        8.6291664531        3.5670112663
  C        38.3304267463       31.9609258320       10.1597361536
  C        37.6142306066       30.8873822536       10.9078604355
  C        36.6855351957       31.1955155046       11.9139850495
  C        36.0781684745       30.1772609399       12.6467570557
  C        36.3841645221       28.8241453185       12.3975316779
  C        37.2925595103       28.5260124203       11.3631208448
  C        37.9021266954       29.5407305801       10.6317528604
  C        35.7728562929       27.7246733824       13.1802237878
  C        35.7740190099       27.7182416166       14.6026569201
  C        36.4651886210       28.7076067659       15.3702545293
  C        46.1355553971       26.6208164948       15.2815229035
  C        46.0877629013       26.5801434815       12.4736230702
  C        22.4592656313        3.2559635469       10.2583467436
  C        23.1495030545        4.3658357607       10.9832390012
  C        24.1496583980        4.0819817130       11.9266892877
  C        24.7736928111        5.1136140719       12.6240258461
  C        24.4178794991        6.4587755865       12.4001795840
  C        23.4406310850        6.7358847286       11.4254459932
  C        22.8117948670        5.7044888081       10.7288739196
  C        25.0463209312        7.5583744657       13.1741153124
  C        25.0417302538        7.5521216717       14.5969773552
  C        24.3508005054        6.5545613914       15.3549897220
  C        26.6200441536       17.8610191660        5.7812281641
  C        25.3128747681       17.9103494625        5.0573434960
  C        25.0481519063       18.9141322675        4.1118730175
  C        23.8352162585       18.9338302200        3.4254817138
  C        22.8493522220       17.9546972342        3.6641707265
  C        23.1096485836       16.9743349340        4.6404590862
  C        24.3248377430       16.9481601130        5.3232546766
  C        21.5760688385       17.9406404837        2.8995855493
  C        21.5767537052       17.9213911205        1.4770845149
  C        22.7829211130       17.8024304452        0.7170655176
  C        34.4442090797       17.1935947380        5.9219726265
  C        35.7363950567       17.1471573420        5.1781150187
  C        35.9404724006       16.1905360623        4.1715765592
  C        37.1194703026       16.1879491481        3.4320100066
  C        38.1275553998       17.1389053760        3.6823554506
  C        37.9272858640       18.0746170371        4.7148879603
  C        36.7442222928       18.0845777356        5.4494429465
  C        39.3814317510       17.1544766219        2.8968713177
  C        39.3778426782       17.1789826720        1.4756642705
  C        38.1717654022       17.3106778840        0.7178745827
  C        20.3305016178       17.9364733783        0.7678814965
  C        20.3512009899       17.9406208635        3.5815740892
  C        34.4784539197       17.2471731424       10.1805243778
  C        35.7803524296       17.1812288892       10.9067356410
  C        35.9959586226       16.2033404451       11.8890494371
  C        37.1809447205       16.1929509139       12.6192749710
  C        38.1783541675       17.1591174297       12.3846567542
  C        37.9689330634       18.1124894282       11.3711988961
  C        36.7812391753       18.1286421729       10.6449728064
  C        39.4249837705       17.1815219860       13.1796967731
  C        39.4003998651       17.1935754498       14.6003136428
  C        38.1825313969       17.3156328642       15.3410769823
  C        35.1361189205       26.6410031895       15.3036547307
  C        35.1845731818       26.6542548856       12.4944033660
  C        26.5711962384       17.8281927925       10.3232333991
  C        25.2555427791       17.8742429875       11.0289765343
  C        24.9942414398       18.8784693035       11.9734527809
  C        23.7769072271       18.9053470878       12.6483267718
  C        22.7920916189       17.9276013102       12.4027560947
  C        23.0480655411       16.9481708335       11.4260227958
  C        24.2659363039       16.9195144444       10.7490735019
  C        21.5288259691       17.9097153006       13.1763954198
  C        21.5524379875       17.9029654921       14.5980146854
  C        22.7709812970       17.7926734170       15.3406561566
  C        14.0467138319       17.8287875116       10.2890432111
  C        15.3510581950       17.8858869823       11.0146264609
  C        15.6074398479       18.8891256893       11.9623005944
  C        16.8163555336       18.9102211109       12.6553241584
  C        17.8032846925       17.9309736690       12.4228261282
  C        17.5516962457       16.9519865280       11.4430114633
  C        16.3421787531       16.9262455295       10.7516156904
  C        19.0724124718       17.9147503080       13.1919051448
  C        19.0709462688       17.9125189586       14.6143932785
  C        17.8639413398       17.8125575361       15.3754871455
  C        46.8068577632       17.2208249865       10.1599621322
  C        45.5192840081       17.1666088937       10.9087919100
  C        45.3117214572       16.1948956848       11.8996812057
  C        44.1318940764       16.1870292409       12.6387562536
  C        43.1312068397       17.1508341082       12.4075385873
  C        43.3361559212       18.1021862610       11.3903220467
  C        44.5165635222       18.1141880520       10.6526752508
  C        41.8789276480       17.1714768215       13.1956170296
  C        41.8839351330       17.1728446845       14.6170848966
  C        43.0926364587       17.2630189740       15.3767118179
  C        20.3176444934       17.9262044037       15.3227975128
  C        20.2966895548       17.8961275528       12.5098779030
  C        46.7866038057       17.2309984778        5.8907933961
  C        45.4827336792       17.1273283540        5.1780725208
  C        45.2633011725       16.1347366391        4.2113053036
  C        44.0751498797       16.1145627280        3.4854728786
  C        43.0786349051       17.0838139938        3.7105759869
  C        43.2874682364       18.0443957650        4.7174321473
  C        44.4767789139       18.0713176983        5.4378513504
  C        41.8343631922       17.1163902860        2.9126101557
  C        41.8613571321       17.1426637487        1.4922714803
  C        43.0819272867       17.2461857048        0.7532932569
  C        46.1533567664       26.6372440004        0.7262779556
  C        46.1624184263       26.6561044626        3.5359206190
  C        14.0453809301       17.8317696463        5.7087813747
  C        15.3662911805       17.9063761328        5.0182197364
  C        15.6392776848       18.9221001190        4.0898575460
  C        16.8682119839       18.9599374440        3.4350018330
  C        17.8517085276       17.9812184719        3.6828177593
  C        17.5855889442       16.9944277280        4.6494291898
  C        16.3586367732       16.9560574817        5.3077681192
  C        19.1190263422       17.9574676237        2.9140404121
  C        19.0952744787       17.9336879944        1.4925285905
  C        17.8757458041       17.8221119041        0.7516971514
  C        28.8067583532       14.0894733885       10.3896286899
  C        28.1873249212       12.9193323117       11.0788175230
  C        28.9085514171       12.1742813694       12.0234683814
  C        28.3050697046       11.1023706897       12.6762864655
  C        26.9663997268       10.7513919591       12.4080035998
  C        26.2667029689       11.4769812146       11.4274193094
  C        26.8679326723       12.5495097027       10.7732821696
  C        26.2959885436        9.6725324612       13.1693156855
  C        26.2864496952        9.6985907391       14.5902341892
  C        26.7908685627       10.8117131055       15.3351286199
  C        32.1807775330       21.2434063833       10.1431107762
  C        32.7775095334       22.4082827080       10.8635797285
  C        32.0287660723       23.0858545065       11.8382873552
  C        32.5994690364       24.1237307472       12.5689510547
  C        33.9350393871       24.5119270168       12.3468992166
  C        34.6663755352       23.8526690866       11.3407439726
  C        34.0978591238       22.8096317018       10.6115098752
  C        34.5634784386       25.5855935971       13.1506779593
  C        34.5463002916       25.5580529182       14.5726343381
  C        34.0276229262       24.4461442197       15.3091521507
  C        25.6802401937        8.6197322529       15.3102078831
  C        25.6593059407        8.6213660256       12.4968626836
  C        32.0879859817       21.2078376556        5.8808062910
  C        32.6581101397       22.3725610222        5.1415503280
  C        31.9189637180       23.0371556920        4.1507688325
  C        32.4960990685       24.0707246253        3.4151809874
  C        33.8251589659       24.4721405381        3.6542858925
  C        34.5454677424       23.8237800687        4.6759595633
  C        33.9742857795       22.7846107743        5.4047267477
  C        34.4681527041       25.5544018957        2.8721899202
  C        34.4949198177       25.5432969329        1.4502049434
  C        34.0008692391       24.4394653850        0.6859538389
  C        40.6247416032       17.1527667117        0.7681069632
  C        40.6037869328       17.1402564233        3.5773768357
  C        28.7492090644       14.0721146046        5.8185310226
  C        28.1399778393       12.9240306813        5.0800936866
  C        28.8735385757       12.2314935992        4.1047082252
  C        28.2926240608       11.1746758048        3.4071449369
  C        26.9619560303       10.7839030517        3.6597570302
  C        26.2459455782       11.4642374239        4.6623382413
  C        26.8253160174       12.5212831633        5.3616329558
  C        26.3182253306        9.6932801607        2.8884110659
  C        26.2998053862        9.7089015682        1.4667566152
  C        26.7953021099       10.8177989734        0.7111548159
  C        18.1353944269        3.1808586152       10.3171343667
  C        17.4060772444        4.2781319660       11.0157560182
  C        16.3903716036        3.9998080668       11.9432815589
  C        15.7426544724        5.0398102998       12.6067690684
  C        16.0946114894        6.3835219880       12.3671021968
  C        17.0839933470        6.6530121475       11.4033233957
  C        17.7330571839        5.6156400577       10.7382858748
  C        15.4703319336        7.4912618302       13.1301365313
  C        15.4856223932        7.4905919096       14.5518495712
  C        16.1871215394        6.4969409140       15.3050260627
  C        42.9458120026       31.8595066856       10.0728469490
  C        43.6461191850       30.7718366508       10.8168660346
  C        44.5917434440       31.0931253475       11.8028539291
  C        45.1974296866       30.0875666108       12.5505196502
  C        44.8708887037       28.7345164620       12.3357418683
  C        43.9449523444       28.4202058670       11.3226226392
  C        43.3361528201       29.4253657628       10.5745897416
  C        45.4885218054       27.6552316106       13.1389207679
  C        45.4927294679       27.6808810541       14.5606145328
  C        44.8056099394       28.6889043783       15.3072409196
  C        14.8566939327        8.5631157511       15.2642014992
  C        14.8750420654        8.5630231853       12.4515408772
  C        42.9463981937       31.9615505559        5.8089725740
  C        43.6916102357       30.8854311559        5.0954587300
  C        44.6563546354       31.1913426534        4.1233062355
  C        45.2778940696       30.1717492283        3.4056012233
  C        44.9539655751       28.8214455045        3.6430976548
  C        44.0202530833       28.5237842342        4.6536533015
  C        43.3919654107       29.5405468187        5.3658103852
  C        45.5630671282       27.7240647288        2.8578641809
  C        45.5333342703       27.7173645543        1.4365697797
  C        44.8269283295       28.7075485608        0.6836341148
  C        35.1123472589       26.6320250373        0.7489008959
  C        35.0785125983       26.6112922135        3.5592133662
  C        18.1485129136        3.2468940928        5.7066110680
  C        17.4298410951        4.3437682657        4.9974130004
  C        16.4146713094        4.0524967657        4.0738116970
  C        15.7663916065        5.0831354668        3.3984041155
  C        16.1210625482        6.4283617684        3.6211387361
  C        17.1124455520        6.7117423194        4.5783919558
  C        17.7600929268        5.6828248339        5.2581835045
  C        15.4906324300        7.5240766880        2.8486614817
  C        15.4965993423        7.5075024122        1.4275261853
  C        16.1933014056        6.5057457154        0.6808405779
  H        10.6725158841       12.4658874224        3.9044572032
  H        11.6947605831       10.5511034991        2.6625439978
  H        15.3916314168       11.1684098722        4.7724374277
  H        14.3511721084       13.0711990554        6.0176637411
  H        13.3763854114       11.6312529090        1.2013060472
  H        50.3229301657       22.7485552071        3.9868723139
  H        49.3197763156       24.6230317927        2.6808971385
  H        45.6422765636       24.1612229728        4.8637288109
  H        46.6632052510       22.2902988025        6.1719487816
  H        47.6300421091       23.5759934012        1.2461945577
  H        14.8720513214        8.5881944801        4.6085548070
  H        50.2872065757       22.7028475412       12.0603704437
  H        49.2691613821       24.5756744690       13.3603931814
  H        45.6105791450       24.1092618304       11.1460197473
  H        46.6527677623       22.2540005057        9.8317431000
  H        47.6079779365       23.5519488818       14.7968634238
  H        40.6623903508       17.1541252826       11.4276989282
  H        48.6870429451       14.0949290510        7.7999866582
  H        10.6814279108       12.4666524847       12.0933646583
  H        11.6897400462       10.5247329343       13.2970615553
  H        15.3936289294       11.1589618993       11.2055161471
  H        14.3650667115       13.0873931477        9.9902873889
  H        13.3760774932       11.6222289490       14.7530950857
  H        47.9302082144       14.2180862570        9.7109857726
  H        47.7801178737       14.3736161482        6.4951525515
  H        49.0844859939       18.5528337587       10.8676553891
  H        10.4161073715       14.1342674656        7.9986887155
  H        24.4854664784        3.0299211890        3.9179867288
  H        25.6272593355        4.8900551334        2.6942447542
  H        23.2549228258        7.7554325189        4.8529740321
  H        22.1308242254        5.8855330117        6.0776654449
  H        23.8083805636        5.7960089779        1.2736270636
  H        36.3676917830       32.1874789072        3.9750089966
  H        35.2308224315       30.3646166416        2.7049067103
  H        37.4844211008       27.4369943500        4.9074020848
  H        38.6020496113       29.2727062129        6.1862395308
  H        37.0102386693       29.4454677172        1.2959705608
  H        25.7506186501        8.6099368684        4.6545980485
  H        36.4594099600       32.2395244370       12.1188514190
  H        35.3518877206       30.4231000812       13.4183351802
  H        37.5421128880       27.4860117389       11.1633766792
  H        38.6247121037       29.3140326292        9.8515690308
  H        37.0442046326       29.4640740875       14.8482629110
  H        46.1091234683       26.5875393108       11.3855848955
  H        44.6682042717       35.1161317277        7.8139011969
  H        24.4289003039        3.0443258979       12.0949643240
  H        25.5532769709        4.8864741762       13.3480506361
  H        23.1542760266        7.7697807511       11.2436052358
  H        22.0414852356        5.9155150159        9.9907212980
  H        23.7784915248        5.7986670491       14.8250542937
  H        44.9535951842       34.3902996047        9.6951869679
  H        44.9015058536       34.2066620948        6.4906551785
  H        40.6660201456       33.2089627549       10.8531756409
  H        23.1503586827        1.9577405675        8.0056420046
  H        25.8023604115       19.6768934775        3.9313247174
  H        23.6357207841       19.7181834906        2.6983570355
  H        22.3602279341       16.2095358176        4.8341032995
  H        24.5365031689       16.1773920731        6.0607540717
  H        23.7237920580       17.6879497213        1.2473858394
  H        35.1601952317       15.4588423786        3.9770893579
  H        37.2766187098       15.4393504833        2.6585888461
  H        38.6984756032       18.8164556432        4.9118800830
  H        36.5712435479       18.8223802460        6.2295094913
  H        37.2331741290       17.4372973435        1.2498437390
  H        20.3574440335       17.9793112196        4.6694928032
  H        35.2157753601       15.4687158749       12.0746078116
  H        37.3488464276       15.4319873429       13.3783078564
  H        38.7335769816       18.8642873024       11.1867988254
  H        36.5959984793       18.8818448430        9.8827805104
  H        37.2521870594       17.4444919407       14.7955147356
  H        35.1625377358       26.6799849510       11.4065647905
  H        28.5107670775       21.0829910676        7.9678081821
  H        25.7581775038       19.6299401645       12.1603433626
  H        23.5737382263       19.6891111254       13.3749464621
  H        22.2959269005       16.1865230204       11.2306465104
  H        24.4796055674       16.1518594481       10.0091091889
  H        23.7027023584       17.6704802717       14.7965183756
  H        28.9923801900       21.7255114486        9.7675527235
  H        29.1452081530       21.7502372083        6.6124274439
  H        32.1027790572       18.5683539560       10.9734481275
  H        27.4042067088       19.0727507286        8.0757819032
  H        14.8488656504       19.6480508411       12.1404505893
  H        17.0113450383       19.6945554212       13.3835710219
  H        18.3032032195       16.1880548712       11.2542834904
  H        16.1365425351       16.1570952631       10.0109322302
  H        16.9217179429       17.6954544182       14.8480313836
  H        46.0917836405       15.4598184903       12.0834851006
  H        43.9699459843       15.4260221917       13.3989331707
  H        42.5709172800       18.8539707656       11.2086554168
  H        44.6927335030       18.8627561319        9.8838396069
  H        44.0348632427       17.3765724266       14.8482230067
  H        20.2907232704       17.9250349809       11.4217192563
  H        46.0396151477       15.3949384818        4.0297815049
  H        43.9066194486       15.3457118084        2.7345937465
  H        42.5217362950       18.7960952667        4.8971932075
  H        44.6615669250       18.8324803810        6.1917816848
  H        44.0160027851       17.3456821172        1.2985671049
  H        46.1992428348       26.6826478869        4.6233677575
  H        52.7412263417       21.0626868816        8.1947026542
  H        14.8785432156       19.6756511774        3.8982523866
  H        17.0791652769       19.7505448235        2.7180988073
  H        18.3363822081       16.2324443815        4.8484084126
  H        16.1376865715       16.1813798488        6.0380116396
  H        16.9424095500       17.7122436536        1.2956449275
  H        52.3226528022       21.6733754565        6.2942499898
  H        52.0134193843       21.7021799003        9.4957636450
  H        49.0678565345       18.6079439347        5.2040792483
  H        13.2476570418       19.0162733919        7.9774125361
  H        29.9407380329       12.4491763035       12.2293438602
  H        28.8656983071       10.5223115003       13.4061811934
  H        25.2324036214       11.2157260154       11.2131144826
  H        26.3259931653       13.1311286944       10.0315324517
  H        27.1486548545       11.6816281690       14.7927456107
  H        31.0031610421       22.7726827376       12.0187284983
  H        32.0128936107       24.6479419021       13.3202863448
  H        35.7000526910       24.1425869948       11.1633353617
  H        34.6683910193       22.2754317058        9.8551543740
  H        33.6718812586       23.5781012320       14.7616238085
  H        25.6877989330        8.6019486670       11.4088217401
  H        30.8933391486       22.7281031304        3.9614811556
  H        31.9160810635       24.5837215562        2.6511025941
  H        35.5740065173       24.1225299992        4.8674705077
  H        34.5373910513       22.2611376176        6.1736651477
  H        33.6251597427       23.5657649389        1.2114446810
  H        40.5959560847       17.0926718757        4.6646224546
  H        32.5112735066       14.1446341492        8.2532023178
  H        29.9007647901       12.5346413752        3.9142515318
  H        28.8694394452       10.6323973779        2.6609558815
  H        25.2165895521       11.1753321691        4.8646664749
  H        26.2692767435       13.0616899102        6.1240705356
  H        27.1555345507       11.6924471486        1.2447915572
  H        33.3101805366       14.2291618231        6.4680174165
  H        33.4101391597       14.4077016311        9.6010671955
  H        32.1896777966       18.5051145423        5.2118018684
  H        30.2189440282       14.1885367092        8.0700168134
  H        16.1182622163        2.9633142082       12.1296614791
  H        14.9531717348        4.8204326398       13.3223975799
  H        17.3664342708        7.6858867286       11.2102054878
  H        18.5150467426        5.8182585405       10.0103826386
  H        16.7535959504        5.7395413168       14.7715252498
  H        44.8281093425       32.1401960077       11.9769817943
  H        45.9373752478       30.3412840485       13.3064004199
  H        43.6821343469       27.3781542444       11.1525827696
  H        42.5994412347       29.1900433081        9.8100151326
  H        44.2301701698       29.4366085419       14.7689389413
  H        14.8512535389        8.5462196241       11.3633217077
  H        44.9000110782       32.2340176493        3.9319653583
  H        46.0249094176       30.4129566960        2.6524654616
  H        43.7630878048       27.4840749282        4.8450400362
  H        42.6452614612       29.3177495554        6.1240494760
  H        44.2683819592       29.4703938377        1.2182377295
  H        35.0302387432       26.6240344422        4.6464658005
  H        36.6050902312       35.1338931728        8.1807528316
  H        16.1435636641        3.0129248033        3.9041181048
  H        14.9740672625        4.8562801896        2.6883236037
  H        17.3959650009        7.7472112281        4.7552637396
  H        18.5429638264        5.8932513878        5.9829683893
  H        16.7646397465        5.7554441136        1.2192965080
  H        36.2784304321       34.4824049571        6.2732144932
  H        36.3803957955       34.2092561238        9.4998639527
  H        40.5791642490       33.2016838632        5.1540067613
  H        17.4707589590        1.9468576328        7.9740826416
  H        29.0724893680       19.3357544666       12.5035816900
  H        28.9182084014       18.7774535810        3.7290284636
  H        32.1576434728       15.8471511268        3.6442338302
  H        31.2831473401       15.5089960000       12.4921794873
  H        27.9419349176       18.0237484732       14.5923446917
  H        29.5136937542       15.1059641273       14.4412749132
  H        31.0387540382       20.0401920667        3.0696274067
  H        33.1071111759       17.3637309470        1.2044133998
  H        29.0080024921       17.3022255923        1.1869613389
  H        32.2654452469       18.3382594691       14.4088920558
  H        18.8536534909        0.8691230860       12.3352191305
  H        40.5278984648       35.2291291880        3.9521578827
  H        42.3235161195       34.4183804662        3.5908550194
  H        22.0879587005        0.6921529409       12.3513559271
  H        11.5968761869       18.7130831231       12.3826580918
  H        52.2649980912       18.4313780675        3.6771274693
  H        49.2558218642       16.4770598438        3.5843390168
  H        10.1500878312       15.7981972515       12.2927815162
  H        50.8503216858       17.6923161504        3.9543076080
  H        10.0461591808       17.3945150964       12.0519531249
  H        20.2150156362        0.0023870191       12.0419751928
  H        39.1835493842       36.1245030020        3.6865459892
 Ni        31.0707131383       17.7385343927        2.7499004607
 Ni        31.1528823783       16.4279922323       -0.0833989981
 Ni        29.9741050676       19.1126139582       -0.3319535527
 Ni        30.1014307498       17.3751409609       13.0817539807
  O        10.6499889666       14.3650570593        5.4858132760
  O        12.6131940060       14.6574961815        6.5839154029
  O        49.1481783448       16.8459054755        7.9897213045
  O        50.3503029983       20.9358638643        5.6480471604
  O        48.3486339965       20.5933393471        6.6659257984
  O        11.0518648604       17.0538395904        6.5006903271
  O        50.3210881693       20.8816585286       10.4068617588
  O        48.3467791015       20.5868317322        9.3272026771
  O        49.5438017931       18.2484187925       10.0683132244
  O        12.3591338700       18.6246033290        7.9997694287
  O        48.6932867782       14.1485218867        6.7512941822
  O         8.2098872369       14.2103706687        9.3225745788
  O        10.7354213504       14.5067659422       10.6643589656
  O        12.5718055687       14.5828293891        9.3284942876
  O        22.8446213015        2.0431401525        5.4871979451
  O        21.6055986962        3.5923445415        6.5896026161
  O        42.0580330924       34.1372029123        7.9789512687
  O        37.9813824653       33.1368336973        5.5725393422
  O        39.2178212125       31.5756186183        6.6664143649
  O        20.3083318712        1.0393994101        6.5020208313
  O        38.0245113579       33.1850695161       10.4156766569
  O        39.2187165685       31.5833192450        9.3270527055
  O        40.6521837687       33.7691865504       10.0602460408
  O        18.2555667094        1.3758565415        7.9967890809
  O        44.6222388210       35.1005211382        6.7587208116
  O        24.2053464792        0.0000432324        9.3208243464
  O        22.7529593889        2.0581833262       10.5839878095
  O        21.6241776398        3.5959189782        9.3421928939
  O        27.5006503021       18.7509786507        5.4891332501
  O        26.7624192178       16.9383548613        6.6524073953
  O        30.6688972848       19.4014424163        8.0595183174
  O        33.5906882211       16.2734993346        5.6679856436
  O        34.2750830596       18.1680121787        6.7337301299
  O        29.5786022355       17.0591595961        6.5782924003
  O        33.6230762944       16.3287238132       10.4097676897
  O        34.3060223650       18.2479260692        9.4052135325
  O        31.6560540898       18.3106313735       10.1510215540
  O        30.3222496473       15.1540434372        8.0846290671
  O        28.5534998561       21.0321437525        6.8989806044
  O        28.5126731069       20.9587008099        9.4108347343
  O        27.4572308349       18.6780529268       10.6590124470
  O        26.6940929369       16.9285305301        9.4120304645
  O        13.1487989228       18.6929221663       10.5874580155
  O        13.9195281251       16.9162749473        9.4051472029
  O        50.5964896877       19.3502968064        8.0205379094
  O        47.6832803893       16.3271221599       10.4173558811
  O        46.9526227964       18.1761580195        9.3238832060
  O        11.0698880754       17.0155175288        9.4896945903
  O        47.6764701811       16.3354028248        5.6531134135
  O        46.9289567205       18.2357361185        6.6655927078
  O        49.5689047534       18.3177101156        5.9822749216
  O        10.3186886600       15.1001059215        7.9970843757
  O        52.6707784899       21.0278762730        9.2418179692
  O        12.1468716482       20.8912095533        6.6732347987
  O        13.1080386909       18.6136796853        5.3256242374
  O        13.9572711173       16.9870665098        6.6654021559
  O        29.9901440102       14.4368702674       10.7284842559
  O        28.0878717628       14.6539735716        9.4934867214
  O        32.1411796735       16.8532525712        8.0745717052
  O        30.9676383640       20.9558814186       10.4063128511
  O        32.9484981668       20.6019520148        9.3384424632
  O        29.5684672216       17.0737862401        9.5769717013
  O        30.8622412637       20.8911525506        5.6524176209
  O        32.8742937114       20.5859623953        6.6660812753
  O        31.6846502353       18.2529070126        6.0002392518
  O        28.2900917351       18.6753480223        8.0720451807
  O        32.4942493722       14.2113995191        9.3290338235
  O        32.4057014005       14.2149875870        6.8236870487
  O        29.9215165244       14.4438660758        5.4882153112
  O        28.0401258721       14.5905799312        6.7521800848
  O        17.8891887972        1.9665519385       10.6627948986
  O        18.9561913502        3.5270863301        9.4079604896
  O        39.1686020657       34.1387110024        7.9971662310
  O        43.2802572974       33.0589279629       10.3316894092
  O        42.0344629421       31.5064553941        9.2416056458
  O        20.3175343997        1.0366169691        9.4802690251
  O        43.2760952858       33.1825494563        5.5748853736
  O        42.0052596104       31.5841066462        6.5829990796
  O        40.5789295172       33.7748345112        5.9357872743
  O        22.3672327605        1.3845382569        7.9979032519
  O        36.6727854559       35.0996896813        9.2333620859
  O        16.4455460057        0.0641887151        6.6682580741
  O        17.9364976658        2.0433264529        5.3264096810
  O        18.9190325093        3.5931238674        6.6659167994
  O        29.8243203754       18.8259208333        4.0821445503
  O        29.8207777865       18.9833318941       11.9802886825
  O        31.4324549435       16.3439841954        4.0665255026
  O        31.3562399867       16.3405943927       11.9832352579
  O        32.3621095621       16.7814030672        1.4239794782
  O        29.9300740379       17.5902925109        1.0723194085
  O        30.2865311019       15.6822464315       14.3326761692
  O        31.3824366020       18.0163364587       14.6503250092
  O        31.5461005689       19.7817402686        2.2593266602
  O        28.7939410334       18.3905875448       14.3121929021
  O        39.4567498677       35.2438601682        4.0019886602
  O        19.1416887109        0.0046850765       11.9905490413
  O        41.9696237985       35.1727011365        4.0871728722
  O        21.6914286459       -0.0692905053       11.8958773867
  O        51.3652053351       18.6143445738        4.0053944082
  O        10.7511860226       18.7471407877       11.9049203632
  O        50.0802007703       16.4128069386        4.0916779910
  O         9.5243391431       16.4831439639       11.9912188283
 Zr         9.2973622109       16.0526794037        6.1825438621
 Zr        49.8365320521       16.0066514047        9.7462831906
 Zr        22.0731255064        0.0295579495        6.1890283663
 Zr        42.4607565404       35.1532577509        9.8007596512
 Zr        29.6076753075       19.0907907361        6.2774929164
 Zr        29.5813555999       19.1828570014        9.8625721110
 Zr        11.0382662182       19.0519891092        9.8277764707
 Zr        11.0441460149       19.1548948713        6.2509579069
 Zr        31.3551803183       16.0947953264        9.8667390417
 Zr        31.3901500350       16.0161539481        6.2848891464
 Zr        18.6009255401       -0.0019064915        9.7635283665
 Zr        18.5063295527       -0.0081687459        6.2135876898
 Zr        12.3022741027       16.3235384156        7.9903936572
 Zr        48.6172891503       18.8334603760        8.0103249105
 Zr        20.3148900641        2.4730512745        7.9904699075
 Zr        40.6429439885       32.6866443926        7.9782002040
 Zr        28.3478037494       16.3416118340        8.0870455383
 Zr        32.6295516934       18.8368475985        8.0613916698
  H        30.7156332310       14.8471638756        1.3927955581
  H        30.8977775569       20.0366706248        1.5395630554
  H        29.4473267942       20.2676395692        0.5103692474
  H        30.5964994655       14.5369893806        0.7100165398
