     576
 i =      192, E =     -4779.9960052578
  C        11.8583199664       14.0534923462        5.7416242729
  C        12.4557473975       12.8903028065        5.0234860697
  C        11.7047903209       12.1729138565        4.0800955300
  C        12.2811461733       11.1107537413        3.3876379796
  C        13.6210237707       10.7393820851        3.6169520460
  C        14.3532150894       11.4411821129        4.5924713481
  C        13.7803765336       12.5061100529        5.2840652588
  C        14.2607944232        9.6489549587        2.8435056879
  C        14.2567979818        9.6573120942        1.4218023750
  C        13.7441178224       10.7596133832        0.6677996281
  C        49.1265456455       21.2335608882        5.8797218655
  C        48.5501220566       22.4012390553        5.1527890311
  C        49.2999575153       23.0680558412        4.1712034908
  C        48.7330570284       24.1070914694        3.4379712291
  C        47.4027757296       24.5095782766        3.6671002694
  C        46.6721652663       23.8613048222        4.6813255160
  C        47.2344887910       22.8163891697        5.4106814693
  C        46.7726267317       25.5870703621        2.8696729660
  C        46.7624580848       25.5577068504        1.4478429408
  C        47.2624914779       24.4427458034        0.7043152879
  C        14.8608262803        8.5709902571        0.7085679165
  C        14.8909255879        8.5965867943        3.5201526871
  C        49.1130841071       21.2037981465       10.1452280330
  C        48.5282399206       22.3651653936       10.8719479914
  C        49.2672136470       23.0252160927       11.8655937400
  C        48.6909683776       24.0597551324       12.5969958983
  C        47.3608392714       24.4574096571       12.3582049013
  C        46.6408609821       23.8133075771       11.3337916895
  C        47.2142474618       22.7773475365       10.6020481536
  C        46.7224635240       25.5321709702       13.1493524335
  C        46.7348636609       25.5286433339       14.5711066985
  C        47.2502948259       24.4295059649       15.3275051753
  C        40.6283878103       17.1192282262       15.3301201967
  C        40.6545254139       17.1734606232       12.5195672789
  C        11.8825452353       14.0864016567       10.2853756777
  C        12.4714999098       12.9099719912       10.9890682397
  C        11.7146447939       12.1783052514       11.9169109864
  C        12.2810447748       11.0957941315       12.5854180688
  C        13.6191573043       10.7204398371       12.3520836840
  C        14.3562034627       11.4341540902       11.3891494606
  C        13.7909825503       12.5154116722       10.7164571514
  C        14.2529792088        9.6239765408       13.1226542210
  C        14.2526968597        9.6446855600       14.5444910205
  C        13.7434211507       10.7539444669       15.2915375356
  C        22.5097192659        3.2436206458        5.7530365430
  C        23.2223105265        4.3522290307        5.0516101263
  C        24.2202057525        4.0755723534        4.1058028403
  C        24.8445639265        5.1173079715        3.4238445317
  C        24.4863770139        6.4578736395        3.6682871967
  C        23.5158738379        6.7264156342        4.6504905990
  C        22.8871307478        5.6861924162        5.3303792285
  C        25.0886891533        7.5666239721        2.8922205256
  C        25.0584113469        7.5606958077        1.4703805196
  C        24.3562588340        6.5604881551        0.7255070225
  C        38.2950310226       31.9266685787        5.8535537050
  C        37.5525400285       30.8399183551        5.1619313861
  C        36.6175401432       31.1402280497        4.1571723291
  C        35.9990082798       30.1186435710        3.4449618261
  C        36.2891728825       28.7639429370        3.7165562329
  C        37.1852484279       28.4744958817        4.7668153931
  C        37.8141832789       29.4950784080        5.4729786354
  C        35.6952662186       27.6740910907        2.9211815058
  C        35.7033526658       27.7104720666        1.4812701289
  C        36.4176687654       28.6934813035        0.7564006877
  C        25.6793470445        8.6310601033        0.7491860952
  C        25.6853465090        8.6427743022        3.5614621145
  C        38.3257682941       31.9603949853       10.1570341375
  C        37.6016420695       30.8946290096       10.8934619264
  C        36.7109561990       31.2046675289       11.9354980115
  C        36.1066684854       30.1894388498       12.6701174953
  C        36.3644559968       28.8299116645       12.3845391302
  C        37.2256822909       28.5334098130       11.3051699496
  C        37.8401408788       29.5451594781       10.5782246811
  C        35.7621740541       27.7356421267       13.1637961283
  C        35.7376756182       27.7411381907       14.6028745234
  C        36.4335688734       28.7098608624       15.3649759192
  C        46.1366715362       26.6211490279       15.2812907367
  C        46.0877914517       26.5801842284       12.4733998594
  C        22.4581798148        3.2546459132       10.2568102107
  C        23.1488425708        4.3663273663       10.9817059254
  C        24.1531160591        4.0835498850       11.9205906517
  C        24.7773257434        5.1159844466       12.6169116224
  C        24.4168277708        6.4599442264       12.3952672735
  C        23.4348829393        6.7363987726       11.4254670198
  C        22.8061042261        5.7039322397       10.7302587690
  C        25.0446678675        7.5603386312       13.1685204231
  C        25.0365480815        7.5566488062       14.5913701917
  C        24.3437836217        6.5598505773       15.3485557106
  C        26.6090392062       17.8490593071        5.7470723240
  C        25.3112942039       17.9006728135        5.0231530515
  C        25.0403493061       18.9021779008        4.0761085471
  C        23.8239013038       18.9207306317        3.3989887752
  C        22.8378341422       17.9436543459        3.6485089658
  C        23.1016804534       16.9693257502        4.6307092050
  C        24.3205760712       16.9435280623        5.3035842805
  C        21.5660511312       17.9263136710        2.8879011533
  C        21.5698364363       17.9129012613        1.4647144559
  C        22.7757627695       17.7908292633        0.7062887865
  C        34.4426832540       17.1916724664        5.9484316650
  C        35.7274941918       17.1294591129        5.2031202490
  C        35.9126296938       16.1809874881        4.1828499735
  C        37.0880809382       16.1707539395        3.4375951512
  C        38.1152511135       17.1026316451        3.6931218628
  C        37.9313161173       18.0277525624        4.7404438098
  C        36.7523254900       18.0486303925        5.4797985036
  C        39.3670674129       17.1135990523        2.9059156820
  C        39.3649007537       17.1282404162        1.4817200272
  C        38.1628735737       17.2566111659        0.7212688788
  C        20.3241878068       17.9321399429        0.7556389255
  C        20.3413869196       17.9195468476        3.5702369400
  C        34.4815993529       17.2444154491       10.1824032362
  C        35.7799482041       17.1698360290       10.9018864160
  C        35.9844043801       16.1968167565       11.8934408881
  C        37.1680053518       16.1795184679       12.6237553306
  C        38.1790762053       17.1316893942       12.3823633002
  C        37.9808338003       18.0764335264       11.3568544309
  C        36.7940414349       18.1018672311       10.6308435898
  C        39.4216303969       17.1510676390       13.1802794561
  C        39.3931924209       17.1490527260       14.6035391377
  C        38.1763268173       17.2652732655       15.3426498347
  C        35.0827535183       26.6705704971       15.3018806681
  C        35.1986925304       26.6517419943       12.4810506594
  C        26.5696571659       17.8296852251       10.3238204801
  C        25.2544873262       17.8781975471       11.0227459977
  C        24.9883243836       18.8852352756       11.9636792301
  C        23.7709046622       18.9097819877       12.6371980508
  C        22.7884003772       17.9289315717       12.3925018404
  C        23.0475989708       16.9493157565       11.4163589132
  C        24.2663922395       16.9212981766       10.7420961801
  C        21.5256444125       17.9095508420       13.1647480457
  C        21.5486778782       17.9025670799       14.5869144332
  C        22.7654834494       17.7859860358       15.3291659373
  C        14.0450311143       17.8299691110       10.2861316640
  C        15.3505967990       17.8895179261       11.0077342214
  C        15.6074039143       18.8941227575       11.9535109252
  C        16.8170215500       18.9158186453       12.6444617498
  C        17.8029280444       17.9362141508       12.4099740331
  C        17.5512846000       16.9565655298       11.4310452859
  C        16.3408155595       16.9300032337       10.7423197852
  C        19.0704639906       17.9178987640       13.1784246690
  C        19.0672292859       17.9151733375       14.6015423452
  C        17.8599503973       17.8153047611       15.3605980690
  C        46.8051437966       17.2199538421       10.1608972400
  C        45.5184934667       17.1620097985       10.9101205513
  C        45.3171895114       16.1933021315       11.9060638981
  C        44.1386566626       16.1805710321       12.6467454818
  C        43.1288911512       17.1352673956       12.4130543740
  C        43.3280157692       18.0832823777       11.3903567471
  C        44.5078290566       18.1010043420       10.6516871443
  C        41.8765801084       17.1488399880       13.2005279782
  C        41.8777511117       17.1373226824       14.6248903353
  C        43.0822449302       17.2298476393       15.3865173977
  C        20.3131746021       17.9264598201       15.3107671993
  C        20.2945732845       17.8954234954       12.4972831119
  C        46.7830627771       17.2284428528        5.8922719404
  C        45.4772077675       17.1164911724        5.1857206418
  C        45.2611093040       16.1245140630        4.2164538628
  C        44.0716841355       16.0973397968        3.4933837402
  C        43.0658768954       17.0570659678        3.7231939591
  C        43.2710080987       18.0149323603        4.7345994468
  C        44.4624682264       18.0500925093        5.4514112429
  C        41.8221400220       17.0840916651        2.9248304416
  C        41.8499650280       17.1026252009        1.5014628383
  C        43.0689754499       17.2111359651        0.7648424621
  C        46.1543464962       26.6375152012        0.7260541004
  C        46.1618319905       26.6557850892        3.5357340778
  C        14.0427414517       17.8295443853        5.7074346990
  C        15.3618036420       17.8994861403        5.0123375803
  C        15.6356888542       18.9153563547        4.0845303674
  C        16.8628260619       18.9496109730        3.4263301012
  C        17.8434928455       17.9672782533        3.6709217732
  C        17.5757641054       16.9789661376        4.6355634016
  C        16.3505352874       16.9442375290        5.2970947815
  C        19.1102443374       17.9425990906        2.9024382847
  C        19.0882076368       17.9269255761        1.4796037999
  C        17.8701194614       17.8204486894        0.7378183954
  C        28.8068815791       14.0908436975       10.3910629039
  C        28.1892764600       12.9205781980       11.0764019238
  C        28.9092156836       12.1754780329       12.0224112752
  C        28.3047392761       11.1033959494       12.6733329183
  C        26.9665366422       10.7517105200       12.4024999374
  C        26.2689200012       11.4761944138       11.4193900852
  C        26.8707622546       12.5490319105       10.7669602041
  C        26.2946035735        9.6740318201       13.1635977220
  C        26.2813072894        9.7028072564       14.5843056122
  C        26.7803338957       10.8188291012       15.3283027401
  C        32.1745724684       21.2567713845       10.1479313131
  C        32.7572849837       22.4260000513       10.8484417856
  C        32.0252407525       23.0733767421       11.8597427832
  C        32.5966448865       24.1072082349       12.5896969162
  C        33.9154733354       24.5397649823       12.3283160963
  C        34.6204335716       23.9197416519       11.2740001624
  C        34.0563370569       22.8724882660       10.5524306957
  C        34.5473461778       25.5995063535       13.1301269850
  C        34.5045641203       25.5818473316       14.5681659855
  C        34.0093372454       24.4724351661       15.2956774642
  C        25.6727850079        8.6254590183       15.3044911488
  C        25.6593643451        8.6219874418       12.4911341927
  C        32.0804693334       21.2125907943        5.8765206619
  C        32.6326935930       22.3674739299        5.1530671106
  C        31.9329830847       22.9756966988        4.0892661391
  C        32.5158194917       23.9994164267        3.3534808092
  C        33.8097440032       24.4861660904        3.6662110458
  C        34.4730839415       23.9100641570        4.7771980506
  C        33.9091477782       22.8642897102        5.4919117438
  C        34.4605658955       25.5465386832        2.8903751682
  C        34.4577930940       25.5580945745        1.4486867041
  C        33.9873291130       24.4622171819        0.6864201903
  C        40.6137169490       17.1049316987        0.7753610731
  C        40.5902127278       17.1119794480        3.5864992515
  C        28.7354697603       14.0746895789        5.8116444905
  C        28.1229535109       12.9379011339        5.0673178794
  C        28.8539762334       12.2406261743        4.0922458626
  C        28.2687934402       11.1856670826        3.3966728409
  C        26.9371019593       10.7983742692        3.6509673483
  C        26.2236627483       11.4835414865        4.6524324511
  C        26.8060094346       12.5403602094        5.3488220819
  C        26.2940085567        9.7064262273        2.8821342768
  C        26.2823227943        9.7196534530        1.4605695775
  C        26.7779920011       10.8280852908        0.7042935062
  C        18.1351353773        3.1796900378       10.3169000959
  C        17.4054312893        4.2775214609       11.0156670622
  C        16.3907709023        3.9989693025       11.9441254004
  C        15.7428229352        5.0388415743       12.6077672414
  C        16.0934800435        6.3826272743       12.3670325756
  C        17.0815414146        6.6523505751       11.4019980472
  C        17.7307442918        5.6150576629       10.7368902775
  C        15.4694118294        7.4905082872       13.1300693350
  C        15.4856062924        7.4905975254       14.5517942540
  C        16.1873037936        6.4971078928       15.3050251985
  C        42.9456996671       31.8592095703       10.0726245477
  C        43.6461344149       30.7717288909       10.8169718850
  C        44.5929181766       31.0929591460       11.8018345524
  C        45.1985086429       30.0874082545       12.5495741352
  C        44.8708504519       28.7345097844       12.3356631096
  C        43.9433366099       28.4202666757       11.3240336966
  C        43.3343727984       29.4254417917       10.5761421588
  C        45.4887304768       27.6553034757       13.1387123709
  C        45.4934172673       27.6810215870       14.5604568580
  C        44.8058367998       28.6887312339       15.3069820936
  C        14.8569086890        8.5633117391       15.2641056832
  C        14.8734799267        8.5619147755       12.4514914176
  C        42.9458941466       31.9609199562        5.8092108556
  C        43.6908331033       30.8848906653        5.0950388938
  C        44.6567780437       31.1907691196        4.1241002433
  C        45.2782562445       30.1712296409        3.4062739869
  C        44.9531810893       28.8210372686        3.6427276219
  C        44.0177701427       28.5233530115        4.6516472563
  C        43.3893605263       29.5401105215        5.3637349704
  C        45.5627511222       27.7238180375        2.8576485273
  C        45.5336937748       27.7173282665        1.4362891015
  C        44.8270217103       28.7073018117        0.6834231835
  C        35.0616907661       26.6568095176        0.7490248588
  C        35.1142061644       26.5853616826        3.5718227001
  C        18.1482978033        3.2460211405        5.7070622336
  C        17.4294513929        4.3435055072        4.9976074823
  C        16.4150558730        4.0521424303        4.0733254543
  C        15.7666923982        5.0827188231        3.3977190690
  C        16.1204177962        6.4280058431        3.6212313552
  C        17.1107178595        6.7114931705        4.5795554569
  C        17.7583717335        5.6825820631        5.2594337298
  C        15.4902937449        7.5238814865        2.8486827575
  C        15.4968346816        7.5077624190        1.4275151156
  C        16.1936196606        6.5060380167        0.6808427454
  H        10.6732116946       12.4682680197        3.9018432723
  H        11.6953370809       10.5534468889        2.6598085014
  H        15.3895101311       11.1649092395        4.7758393140
  H        14.3489722072       13.0679299087        6.0212423204
  H        13.3771916499       11.6318242051        1.2010247226
  H        50.3223923260       22.7474875521        3.9859532304
  H        49.3192327604       24.6218141105        2.6798031992
  H        45.6429086306       24.1626097653        4.8649597254
  H        46.6634242106       22.2916504876        6.1730747385
  H        47.6306081277       23.5761046877        1.2458413091
  H        14.8702608532        8.5871730954        4.6084403927
  H        50.2869230729       22.7017226000       12.0611126217
  H        49.2689943392       24.5745669613       13.3611923656
  H        45.6117384298       24.1111848388       11.1441827182
  H        46.6534534600       22.2558203077        9.8300448008
  H        47.6087210063       23.5521701212       14.7967527150
  H        40.6638284592       17.1485050254       11.4315439429
  H        48.6867506893       14.0949962343        7.7998680354
  H        10.6817304734       12.4686201060       12.0955559022
  H        11.6896766763       10.5266137207       13.2994402604
  H        15.3908950238       11.1546006673       11.2016159457
  H        14.3625575153       13.0834342671        9.9862810784
  H        13.3765867361       11.6225421921       14.7528782691
  H        47.9297743602       14.2193432229        9.7104983481
  H        47.7803092731       14.3755465756        6.4949073682
  H        49.0824329083       18.5526773899       10.8669138137
  H        10.4153310953       14.1343889242        7.9986102749
  H        24.4840488052        3.0375869697        3.9151685907
  H        25.6184562030        4.9018181726        2.6902530883
  H        23.2303607317        7.7582058185        4.8447535519
  H        22.1153478831        5.8832171585        6.0704911562
  H        23.7967695970        5.8033782638        1.2672166535
  H        36.4032739012       32.1832081316        3.9362031212
  H        35.2779214813       30.3584715889        2.6668658937
  H        37.4208370230       27.4352537374        4.9865555435
  H        38.5365426803       29.2738491703        6.2551937137
  H        36.9985762067       29.4323372587        1.3002007288
  H        25.7227046759        8.6249704939        4.6492081145
  H        36.5156798966       32.2495312793       12.1658923755
  H        35.4132832879       30.4393887945       13.4697969989
  H        37.4424020278       27.4923377939       11.0754426920
  H        38.5320442308       29.3154191325        9.7715549240
  H        37.0271521408       29.4600992045       14.8512310008
  H        46.1083210685       26.5874346112       11.3853461301
  H        44.6669370735       35.1153307911        7.8141194278
  H        24.4345984677        3.0460600081       12.0864778789
  H        25.5598525595        4.8900381730       13.3381764839
  H        23.1443760503        7.7696888242       11.2467837823
  H        22.0317659777        5.9127165464        9.9956518464
  H        23.7741240483        5.8027131669       14.8174378095
  H        44.9497134103       34.3872173519        9.6934192754
  H        44.8973259957       34.2049786336        6.4909339331
  H        40.6599765061       33.2043147148       10.8506031638
  H        23.1505760730        1.9556132740        8.0051134126
  H        25.7843565426       19.6733743148        3.8909865609
  H        23.6181408216       19.7030008151        2.6715322860
  H        22.3512357873       16.2080392674        4.8338946306
  H        24.5345856694       16.1771429145        6.0447782548
  H        23.7159328327       17.6669884329        1.2356639329
  H        35.1207550395       15.4623677214        3.9834882137
  H        37.2293766348       15.4282733805        2.6552673386
  H        38.7137866812       18.7560495430        4.9432722217
  H        36.5965772852       18.7821510136        6.2675117451
  H        37.2222006461       17.3810296589        1.2494408334
  H        20.3466451103       17.9532036499        4.6583594765
  H        35.1963423450       15.4724473823       12.0859741320
  H        37.3264294774       15.4227164133       13.3888562597
  H        38.7540552493       18.8176838911       11.1658583661
  H        36.6205985126       18.8521660760        9.8630835604
  H        37.2461599449       17.3954967389       14.7975073545
  H        35.1944565693       26.6702885046       11.3927435458
  H        28.5010845356       21.0936376157        8.0012757629
  H        25.7479897941       19.6415170410       12.1477231732
  H        23.5636751568       19.6941014147       13.3620261223
  H        22.2967704006       16.1864915392       11.2206015428
  H        24.4820209011       16.1516901953       10.0048596029
  H        23.6973858625       17.6598110359       14.7862070299
  H        29.0115327506       21.7192504455        9.7556400159
  H        29.1269644584       21.7579712292        6.6114512297
  H        32.1075495936       18.5962854657       10.9713255894
  H        27.4002282391       19.0814545938        8.0858572310
  H        14.8480907059       19.6522343275       12.1319370315
  H        17.0134653971       19.6999861811       13.3724825523
  H        18.3026129617       16.1923840592       11.2427339224
  H        16.1325614098       16.1604232614       10.0028449961
  H        16.9180592378       17.7011674715       14.8319691222
  H        46.1018252842       15.4637321680       12.0922927231
  H        43.9839713245       15.4211156595       13.4099607255
  H        42.5583554441       18.8299247137       11.2061040008
  H        44.6772059391       18.8483496111        9.8800562754
  H        44.0254124596       17.3497025834       14.8612325768
  H        20.2884219146       17.9236247041       11.4090868424
  H        46.0421289224       15.3908611480        4.0302246259
  H        43.9086087579       15.3293176475        2.7404678071
  H        42.5007527557       18.7608873830        4.9190675792
  H        44.6424613725       18.8113805713        6.2064702859
  H        44.0020707512       17.3154912063        1.3106659208
  H        46.1976558054       26.6821110682        4.6232194575
  H        52.7406401496       21.0624650361        8.1946009511
  H        14.8769769088       19.6718884691        3.8965448116
  H        17.0748066130       19.7406771869        2.7102185027
  H        18.3237400561       16.2131587513        4.8304472499
  H        16.1277521227       16.1690455304        6.0262641824
  H        16.9359148513       17.7103512761        1.2802662791
  H        52.3203343806       21.6727826268        6.2951898354
  H        52.0117401825       21.7010348643        9.4954713749
  H        49.0656026691       18.6078431040        5.2052880475
  H        13.2466276779       19.0169629276        7.9766256919
  H        29.9403644751       12.4505756050       12.2323461202
  H        28.8639198329       10.5231392908       13.4041828040
  H        25.2354268044       11.2139666923       11.2024617834
  H        26.3287268971       13.1298048230       10.0247513136
  H        27.1368668148       11.6885177721       14.7845439777
  H        31.0124344738       22.7372653196       12.0679504883
  H        32.0242798280       24.6039454463       13.3697323176
  H        35.6384527768       24.2401653443       11.0623008700
  H        34.6159513823       22.3668958994        9.7688400293
  H        33.6740284905       23.5939710267       14.7526488409
  H        25.6897923902        8.6003451044       11.4031961178
  H        30.9301872736       22.6271511801        3.8519957996
  H        31.9633828360       24.4608661966        2.5381784180
  H        35.4684335202       24.2654891672        5.0354993932
  H        34.4458253446       22.3971304817        6.3141330184
  H        33.6373473381       23.5739814741        1.2035437492
  H        40.5825650443       17.0723717408        4.6741599662
  H        32.5184263215       14.1421560431        8.2637315782
  H        29.8849782113       12.5292730443        3.9007645199
  H        28.8443024315       10.6386272783        2.6529763708
  H        25.1938443707       11.1975608786        4.8564977951
  H        26.2508862048       13.0826887340        6.1104958562
  H        27.1298370934       11.7061145854        1.2379735198
  H        33.2973261924       14.2034202166        6.4453864998
  H        33.4100718165       14.3874572105        9.6164169070
  H        32.2012333504       18.6154862045        5.2215672925
  H        30.2347956552       14.1942082510        8.0687898651
  H        16.1198532042        2.9622630251       12.1312586529
  H        14.9541470294        4.8190751176       13.3241788012
  H        17.3624649339        7.6854088987       11.2076771451
  H        18.5114290192        5.8174292584       10.0075063411
  H        16.7532209666        5.7393259283       14.7714574155
  H        44.8298902056       32.1400168381       11.9751611711
  H        45.9390003725       30.3409012003       13.3049826451
  H        43.6788134662       27.3784214507       11.1554192379
  H        42.5956418779       29.1904037347        9.8134039518
  H        44.2297101079       29.4358600468       14.7685845090
  H        14.8485754003        8.5442884704       11.3633062608
  H        44.9010736600       32.2334586994        3.9337151208
  H        46.0259122200       30.4123035983        2.6537435248
  H        43.7589339124       27.4837814910        4.8415184290
  H        42.6408003158       29.3174437844        6.1202198982
  H        44.2676576238       29.4695095705        1.2181051305
  H        35.0871403379       26.5886433786        4.6599999097
  H        36.6041685848       35.1328772527        8.1814311088
  H        16.1448509559        3.0123926006        3.9030392178
  H        14.9749976392        4.8555744791        2.6870103482
  H        17.3930162096        7.7471165289        4.7574544629
  H        18.5401280186        5.8926892760        5.9855140329
  H        16.7644730583        5.7554300373        1.2194035208
  H        36.2804744258       34.4790067215        6.2747493250
  H        36.3841807184       34.2076129824        9.5014366412
  H        40.5737601520       33.1972935129        5.1567974671
  H        17.4703497060        1.9438394533        7.9737799641
  H        29.2245932649       19.4753178259       12.5827390928
  H        29.8276224776       19.5731511719        3.2010721981
  H        30.8449047164       15.2566730249        3.8921887828
  H        31.0085515783       15.5423357541       12.4379500955
  H        28.4897434483       18.4133279471       14.8990763840
  H        29.1748280813       15.8671747550       14.5862740896
  H        31.6338514384       19.7775342904        2.1066463953
  H        32.3082325342       16.1501948422        2.4090392366
  H        29.6890196988       15.4170803464        1.7558759456
  H        32.7729835862       18.2081719009       14.6923903554
  H        18.8544344670        0.8699791610       12.3344922319
  H        40.5274336944       35.2298351362        3.9531326041
  H        42.3177098688       34.4125101035        3.5956071520
  H        22.0886326098        0.6927146036       12.3498019504
  H        11.5970713295       18.7126423062       12.3821168955
  H        52.2646053717       18.4305466571        3.6776336382
  H        49.2543769072       16.4791850458        3.5858217440
  H        10.1506553049       15.7982723809       12.2920638988
  H        50.8494946148       17.6923066999        3.9545600646
  H        10.0457922488       17.3945645917       12.0519917018
  H        20.2140662775        0.0017403090       12.0423444766
  H        39.1831368248       36.1245570409        3.6871993735
 Ni        30.0622513203       17.2998430171        2.9965257528
 Ni        31.2020995887       16.3937836018        0.0013972384
 Ni        30.5637711217       18.8164609803        0.0876659837
 Ni        30.4743778445       17.6485287900       13.3227975602
  O        10.6497906258       14.3651845597        5.4857654495
  O        12.6130612969       14.6575139188        6.5838436787
  O        49.1478936144       16.8461195982        7.9897162383
  O        50.3502973554       20.9358241389        5.6482838950
  O        48.3485482217       20.5933106491        6.6659199314
  O        11.0511698208       17.0542005815        6.5004423139
  O        50.3211928175       20.8815991162       10.4066537861
  O        48.3468842587       20.5867264856        9.3270782153
  O        49.5433636552       18.2485136212       10.0683694988
  O        12.3585566071       18.6245401375        7.9996063239
  O        48.6930831691       14.1485505617        6.7512111003
  O         8.2096992899       14.2103079182        9.3225780095
  O        10.7352242769       14.5067698753       10.6642790027
  O        12.5717243784       14.5826675285        9.3284756720
  O        22.8452055503        2.0443569830        5.4865692399
  O        21.6052756239        3.5927523468        6.5900171153
  O        42.0569479560       34.1358809863        7.9789784314
  O        37.9816447037       33.1382387215        5.5728974281
  O        39.2180802255       31.5766288985        6.6668926738
  O        20.3078811033        1.0386692983        6.5012695076
  O        38.0259206700       33.1886836723       10.4142256796
  O        39.2193103222       31.5843937051        9.3258458788
  O        40.6521608990       33.7686407284       10.0604012899
  O        18.2560820049        1.3741764697        7.9969128709
  O        44.6222570700       35.1003455322        6.7586230805
  O        24.2052464670        0.0000681864        9.3209871641
  O        22.7532619796        2.0586470825       10.5842543025
  O        21.6239002856        3.5961723998        9.3416486043
  O        27.5318003326       18.6941320974        5.4209491505
  O        26.7321003731       16.9847783691        6.6693139630
  O        30.6695737631       19.4117769981        8.0783066825
  O        33.5800487367       16.2726004850        5.7299114488
  O        34.2685697222       18.1818174657        6.7405786785
  O        29.5739257284       17.0701127325        6.5766225227
  O        33.6184886269       16.3307665587       10.4073731566
  O        34.3061762552       18.2484127530        9.4059623060
  O        31.6572558007       18.3154537998       10.1579123860
  O        30.3277174406       15.1611578677        8.0845903382
  O        28.5484313179       21.0335984515        6.9122078905
  O        28.5144741250       20.9580060893        9.4081258045
  O        27.4588986250       18.6794753683       10.6592717426
  O        26.6964178851       16.9296118163        9.4119147626
  O        13.1479351842       18.6933888973       10.5870524664
  O        13.9187844753       16.9159104997        9.4041848096
  O        50.5956033730       19.3502505224        8.0205365762
  O        47.6835912778       16.3270545941       10.4173674300
  O        46.9518101303       18.1758108333        9.3247311844
  O        11.0690420291       17.0158674223        9.4898111377
  O        47.6763753955       16.3353631790        5.6532782991
  O        46.9271879818       18.2356229722        6.6646976018
  O        49.5687191421       18.3178090815        5.9822672614
  O        10.3184471042       15.1002763599        7.9970376189
  O        52.6706605535       21.0280050481        9.2418486376
  O        12.1468605474       20.8913464346        6.6731426471
  O        13.1074951349       18.6138748183        5.3255465969
  O        13.9564359913       16.9866861432        6.6654144247
  O        29.9913653763       14.4414899678       10.7299750836
  O        28.0899681037       14.6552340422        9.4917818908
  O        32.1026539654       16.9103667132        8.0747037799
  O        30.9616546293       20.9521490979       10.4081402213
  O        32.9447335079       20.6054189432        9.3450946491
  O        29.5678010690       17.0788154892        9.5746303458
  O        30.8444376867       20.8773439847        5.6562601714
  O        32.8669417273       20.5775574316        6.6668678204
  O        31.6103713244       18.2493525110        5.8975539167
  O        28.2852978202       18.6809978120        8.0783620710
  O        32.4934064762       14.2142256059        9.3318423636
  O        32.4024999238       14.2145560406        6.8248516336
  O        29.9178625042       14.4416850030        5.4893247223
  O        28.0382532089       14.5957636615        6.7500234701
  O        17.8889288432        1.9663843049       10.6630674013
  O        18.9561094721        3.5270791745        9.4080954806
  O        39.1686900239       34.1385012175        7.9970805551
  O        43.2805273922       33.0589169107       10.3316420039
  O        42.0352056792       31.5061817091        9.2414670987
  O        20.3170363856        1.0356074500        9.4812378093
  O        43.2761476715       33.1822331576        5.5748799422
  O        42.0054400144       31.5837606009        6.5830981439
  O        40.5791932298       33.7743354120        5.9357833814
  O        22.3665340820        1.3839394547        7.9977767302
  O        36.6723538872       35.0994469493        9.2336614620
  O        16.4447736526        0.0637237543        6.6680594500
  O        17.9361876688        2.0434065768        5.3261416377
  O        18.9190091972        3.5931527119        6.6659640255
  O        29.4033917252       19.1208136159        3.9910742617
  O        29.8294022336       18.9734194901       12.0034630877
  O        31.3048158518       16.1157673670        3.9975661214
  O        31.3449176051       16.3488727107       12.0003873450
  O        32.6927109737       16.3445802845        1.5021475204
  O        30.3257318496       14.8790941045        1.1655974227
  O        30.1246681112       15.9726552835       14.4159549549
  O        31.8490662447       17.9403952103       14.8257142679
  O        30.9277569164       19.1324040102        1.9273464681
  O        29.3284524303       18.8320563055       14.6451916125
  O        39.4567560284       35.2438667135        4.0018425802
  O        19.1416830246        0.0049008862       11.9910313095
  O        41.9702171405       35.1727618723        4.0875010610
  O        21.6920061488       -0.0693725058       11.8957347907
  O        51.3648711271       18.6142491021        4.0054302042
  O        10.7511201699       18.7472393525       11.9049816524
  O        50.0796336751       16.4128572148        4.0915662570
  O         9.5244375328       16.4830885743       11.9912677692
 Zr         9.2951787961       16.0532163463        6.1822765774
 Zr        49.8346235347       16.0071224351        9.7464919092
 Zr        22.0706420917        0.0251735101        6.1908064422
 Zr        42.4583084103       35.1491335335        9.7994720727
 Zr        29.6242618258       19.1274616641        6.3818610594
 Zr        29.5772097542       19.1732695784        9.8980203979
 Zr        11.0361107960       19.0526098731        9.8274421018
 Zr        11.0419439355       19.1554139377        6.2515252756
 Zr        31.3606323840       16.1025955149        9.8938995276
 Zr        31.4063696767       16.0201526238        6.3089301318
 Zr        18.5980781417       -0.0079069978        9.7645984321
 Zr        18.5040340576       -0.0134199115        6.2130799126
 Zr        12.2993108718       16.3235212006        7.9903945821
 Zr        48.6142040649       18.8333619708        8.0100664363
 Zr        20.3118781700        2.4668713951        7.9909276958
 Zr        40.6370603208       32.6807969002        7.9789183052
 Zr        28.3442304891       16.3429074159        8.0907925848
 Zr        32.6618192845       18.8660063168        8.0806522773
  H        28.9006927947       16.3951799136        2.5855197309
  H        28.4106783007       19.1035692343        3.9748822317
  H        29.7707603968       14.3100236766        0.6026292428
  H        33.1136704500       17.2147425033        1.6109533070
