     571
 i =      175, E =     -4761.6085561416
  C        11.8587897538       14.0536088627        5.7415136473
  C        12.4563142317       12.8906397723        5.0231366144
  C        11.7044457389       12.1714374023        4.0818429819
  C        12.2808051274       11.1091912827        3.3895206234
  C        13.6215147667       10.7397330286        3.6169335847
  C        14.3549061554       11.4436618690        4.5899531926
  C        13.7820375809       12.5086837525        5.2814210423
  C        14.2609745531        9.6489670775        2.8436005386
  C        14.2563141386        9.6568251973        1.4218994147
  C        13.7430784074       10.7589291546        0.6680148019
  C        49.1268392125       21.2331574731        5.8796554113
  C        48.5500389511       22.4011790079        5.1525513902
  C        49.3001750571       23.0687022088        4.1717994529
  C        48.7332339162       24.1078532518        3.4386014416
  C        47.4026030353       24.5092399698        3.6670473579
  C        46.6714803024       23.8600744991        4.6802288644
  C        47.2339500736       22.8151573477        5.4095621329
  C        46.7723164719       25.5869568429        2.8698140697
  C        46.7612415330       25.5573846610        1.4480538246
  C        47.2610826040       24.4422285296        0.7045947454
  C        14.8602468265        8.5704772560        0.7086478530
  C        14.8917401217        8.5970403321        3.5202716111
  C        49.1132545157       21.2034389019       10.1453552869
  C        48.5277459496       22.3647102587       10.8727629642
  C        49.2670714533       23.0256765764       11.8654106854
  C        48.6906867913       24.0602095047       12.5968884211
  C        47.3601725397       24.4566883970       12.3588104673
  C        46.6396079671       23.8114866206       11.3356007871
  C        47.2132273728       22.7755922086       10.6038367975
  C        46.7217181193       25.5317426032       13.1497427530
  C        46.7333431707       25.5281282800       14.5714460513
  C        47.2487913522       24.4289228063       15.3278348243
  C        40.6344590149       17.1637865592       15.3251766042
  C        40.6542836900       17.1851586543       12.5164490258
  C        11.8830132679       14.0866398258       10.2855273373
  C        12.4724350424       12.9108503739       10.9898706195
  C        11.7147498746       12.1772737766       11.9155237271
  C        12.2813506988       11.0947923999       12.5839183569
  C        13.6203505424       10.7214945307       12.3525127736
  C        14.3585608740       11.4375027885       11.3922405683
  C        13.7931044876       12.5186889784       10.7195772657
  C        14.2538674215        9.6246187162       13.1228571732
  C        14.2525581114        9.6445369132       14.5446971461
  C        13.7425688832       10.7534337013       15.2917605987
  C        22.5111956524        3.2438760554        5.7530043149
  C        23.2253500681        4.3487836957        5.0528320558
  C        24.2213736046        4.0678902515        4.1059849409
  C        24.8480201640        5.1069618631        3.4231380310
  C        24.4940224799        6.4487477056        3.6673353418
  C        23.5263090744        6.7212540550        4.6513608164
  C        22.8948715531        5.6839148104        5.3323452316
  C        25.0999990186        7.5544992527        2.8917060629
  C        25.0740574215        7.5468056842        1.4699777224
  C        24.3701043388        6.5488618952        0.7242970806
  C        38.2988759763       31.9284735255        5.8519135426
  C        37.5592445366       30.8395838031        5.1496166618
  C        36.5951474661       31.1461575457        4.1769276163
  C        35.9671815787       30.1278141929        3.4650182697
  C        36.2881302939       28.7769927331        3.7030588886
  C        37.2214807922       28.4778090236        4.7134457444
  C        37.8535053173       29.4951399937        5.4246213877
  C        35.6798480294       27.6884950323        2.9038716445
  C        35.7205163396       27.7033505885        1.4823033110
  C        36.4351488757       28.7030780008        0.7495105397
  C        25.6994607064        8.6153477858        0.7502573309
  C        25.6959014304        8.6297571896        3.5625990933
  C        38.3309828116       31.9614330691       10.1599476706
  C        37.6151429431       30.8883132325       10.9094318903
  C        36.6834866946       31.1978011471       11.9123127943
  C        36.0749502347       30.1805793286       12.6455153952
  C        36.3832785636       28.8274648479       12.3997871144
  C        37.2956279161       28.5277494167       11.3694549960
  C        37.9060687844       29.5415612436       10.6375427225
  C        35.7693003039       27.7290767001       13.1817731901
  C        35.7663038848       27.7240723618       14.6042079012
  C        36.4556647359       28.7138883606       15.3728983750
  C        46.1354719567       26.6208509756       15.2815664553
  C        46.0877563452       26.5800921913       12.4736937291
  C        22.4603400883        3.2555994915       10.2572946011
  C        23.1534496784        4.3645936694       10.9802660997
  C        24.1563524084        4.0790061717       11.9202472872
  C        24.7834132783        5.1095385729       12.6162273360
  C        24.4276800894        6.4550132016       12.3943455577
  C        23.4479691881        6.7339736250       11.4226778735
  C        22.8160984321        5.7035953428       10.7274468476
  C        25.0581041923        7.5529127262       13.1684097352
  C        25.0529300543        7.5453989419       14.5913371962
  C        24.3582346340        6.5492808432       15.3471927674
  C        26.6247378807       17.8628006633        5.7833370211
  C        25.3164970745       17.9059168897        5.0591415108
  C        25.0571790376       18.8971335565        4.0995229880
  C        23.8442058054       18.9143950620        3.4133030124
  C        22.8529251063       17.9437406504        3.6644388866
  C        23.1083822628       16.9753984149        4.6537657198
  C        24.3234768302       16.9526332882        5.3372959663
  C        21.5794158031       17.9264758415        2.9000391873
  C        21.5790679893       17.8997928202        1.4774426370
  C        22.7840482824       17.7703243918        0.7167827990
  C        34.4406415305       17.1953895740        5.9213927985
  C        35.7343874079       17.1475739240        5.1801241300
  C        35.9344055459       16.1925042752        4.1713852935
  C        37.1138569159       16.1869861280        3.4322995545
  C        38.1252246943       17.1341219888        3.6844970883
  C        37.9287179074       18.0678015493        4.7198414826
  C        36.7457512227       18.0802295521        5.4545682169
  C        39.3790073790       17.1499129485        2.8983527493
  C        39.3756104071       17.1764121405        1.4769789133
  C        38.1695090643       17.3080995501        0.7194068604
  C        20.3322864285       17.9178864529        0.7690530865
  C        20.3544727081       17.9323626057        3.5823065609
  C        34.4765660468       17.2455678072       10.1833100659
  C        35.7779750181       17.1759556229       10.9080859682
  C        35.9863893034       16.2081955905       11.9020181394
  C        37.1718495240       16.1970436019       12.6313118990
  C        38.1769278327       17.1523348976       12.3850172220
  C        37.9747274051       18.0943029872       11.3590879526
  C        36.7869326720       18.1114923524       10.6335632190
  C        39.4230025436       17.1770307301       13.1805689484
  C        39.3980468676       17.1918164576       14.6014660810
  C        38.1803798993       17.3140269415       15.3425775965
  C        35.1260755935       26.6477286637       15.3042208183
  C        35.1832734284       26.6581096505       12.4947584924
  C        26.5706465919       17.8275865838       10.3243903357
  C        25.2548306581       17.8707116131       11.0294342052
  C        24.9885505899       18.8745135013       11.9729126454
  C        23.7717980311       18.8954240911       12.6489424720
  C        22.7913067543       17.9132513825       12.4035318636
  C        23.0512799640       16.9352668381       11.4266481199
  C        24.2693633851       16.9115789534       10.7500135219
  C        21.5281041271       17.8917070208       13.1771942157
  C        21.5526683403       17.8799340721       14.5986584676
  C        22.7711122016       17.7604136370       15.3402053260
  C        14.0466110420       17.8281040990       10.2894565699
  C        15.3505982151       17.8828588513       11.0157588816
  C        15.6077600165       18.8833485934       11.9661224749
  C        16.8165516499       18.9013609824       12.6595372977
  C        17.8026975854       17.9217809611       12.4248494447
  C        17.5502202915       16.9456243550       11.4424049316
  C        16.3409155092       16.9229084569       10.7506706569
  C        19.0719642177       17.9019907346       13.1935767857
  C        19.0713058783       17.8973944691       14.6160592867
  C        17.8645583636       17.7991288817       15.3777874292
  C        46.8063417314       17.2206916068       10.1602106881
  C        45.5186899197       17.1661306846       10.9090690326
  C        45.3121073560       16.1958723532       11.9017025397
  C        44.1322548540       16.1875613614       12.6408592617
  C        43.1298777928       17.1494130249       12.4083095092
  C        43.3338400477       18.0991642747       11.3892600889
  C        44.5143474790       18.1117291291       10.6516086007
  C        41.8773722013       17.1695828132       13.1965443355
  C        41.8819982587       17.1726225515       14.6181347275
  C        43.0905347593       17.2640933352       15.3777755418
  C        20.3183423281       17.9068514322       15.3239853827
  C        20.2959294088       17.8826223830       12.5108591628
  C        46.7860856270       17.2307351202        5.8908199913
  C        45.4820985454       17.1266954239        5.1784114100
  C        45.2630421058       16.1348333885        4.2107028830
  C        44.0746858019       16.1142723776        3.4851603504
  C        43.0770374761       17.0821811838        3.7114326373
  C        43.2854067589       18.0417267553        4.7194724788
  C        44.4749749517       18.0691663523        5.4395321108
  C        41.8324317135       17.1143718608        2.9137191475
  C        41.8593127969       17.1421689288        1.4933635583
  C        43.0797138980       17.2472402236        0.7543810980
  C        46.1532178380       26.6372719634        0.7263237181
  C        46.1624759996       26.6561067055        3.5359685012
  C        14.0459770748       17.8316031062        5.7088098183
  C        15.3674644875       17.9050401564        5.0188359698
  C        15.6418100296       18.9183332215        4.0881784611
  C        16.8712549079       18.9539494609        3.4339314399
  C        17.8544361357       17.9755018218        3.6845419474
  C        17.5871379426       16.9915561983        4.6537666198
  C        16.3596787132       16.9553485818        5.3113694818
  C        19.1218182571       17.9479952099        2.9155433258
  C        19.0973517538       17.9200245338        1.4941201281
  C        17.8773096513       17.8092746330        0.7539645310
  C        28.8086871619       14.0885263240       10.3876379102
  C        28.1929555386       12.9154219245       11.0749187106
  C        28.9220656259       12.1612700553       12.0061982644
  C        28.3218756953       11.0884517491       12.6605778012
  C        26.9793055744       10.7445122707       12.4044609693
  C        26.2715194154       11.4779268985       11.4356194725
  C        26.8690459524       12.5524678684       10.7816108716
  C        26.3114198082        9.6643262081       13.1659578256
  C        26.3043293539        9.6881468008       14.5872305077
  C        26.8152689105       10.7977174799       15.3323659076
  C        32.1807030102       21.2430592920       10.1438405884
  C        32.7774211034       22.4086823313       10.8646839318
  C        32.0243198182       23.0954179913       11.8296078242
  C        32.5938585004       24.1345690397       12.5594862784
  C        33.9330553119       24.5152785115       12.3463632986
  C        34.6694311582       23.8469019506       11.3501355380
  C        34.1017229600       22.8024985103       10.6218514584
  C        34.5593314646       25.5906645200       13.1499760882
  C        34.5376057910       25.5651250028       14.5717268444
  C        34.0165622974       24.4538592039       15.3071621785
  C        25.6931775779        8.6110158778       15.3057101415
  C        25.6717433405        8.6159966987       12.4922382038
  C        32.0789925446       21.2057796159        5.8803019482
  C        32.6495246094       22.3685610353        5.1358649086
  C        31.9127495199       23.0263473934        4.1387594075
  C        32.4872102160       24.0638137281        3.4060106314
  C        33.8123172833       24.4752247144        3.6522051844
  C        34.5304008647       23.8316923568        4.6785126900
  C        33.9614959312       22.7897545034        5.4055431439
  C        34.4539638759       25.5597075928        2.8718770541
  C        34.4816196719       25.5501913499        1.4498338004
  C        33.9883613516       24.4474168809        0.6837265477
  C        40.6226360935       17.1518828231        0.7692615848
  C        40.6017436701       17.1359156521        3.5784641253
  C        28.7365408583       14.0631326382        5.8205004661
  C        28.1277918067       12.9170940390        5.0825113539
  C        28.8707919445       12.2081730702        4.1259897093
  C        28.2897193309       11.1541789537        3.4250135826
  C        26.9511658075       10.7806320947        3.6588047948
  C        26.2254141663       11.4754898498        4.6444967388
  C        26.8037733210       12.5319932084        5.3450514726
  C        26.3108093024        9.6902275338        2.8850784108
  C        26.3059517396        9.7014305415        1.4629795688
  C        26.8140458258       10.8051757501        0.7088339566
  C        18.1353172885        3.1810098307       10.3171986497
  C        17.4059957060        4.2781597163       11.0157140479
  C        16.3905318853        3.9998163393       11.9435441402
  C        15.7428264743        5.0398082134       12.6070100611
  C        16.0944933086        6.3835689018       12.3670648904
  C        17.0835406853        6.6530652134       11.4029305435
  C        17.7326046252        5.6157145824       10.7378902504
  C        15.4702302298        7.4912503714       13.1301420152
  C        15.4854721653        7.4904955610       14.5518534244
  C        16.1870303469        6.4968870301       15.3050318614
  C        42.9458740647       31.8594794561       10.0728976431
  C        43.6462240362       30.7718662015       10.8167869277
  C        44.5915197549       31.0931908007       11.8031036054
  C        45.1972204428       30.0876521671       12.5507618368
  C        44.8710239379       28.7345492651       12.3357134017
  C        43.9455315828       28.4201972911       11.3221789048
  C        43.3367372358       29.4253327747       10.5741275110
  C        45.4886088529       27.6552872621       13.1389335335
  C        45.4927470313       27.6809531320       14.5606274582
  C        44.8057667658       28.6890540908       15.3072784592
  C        14.8565040982        8.5629794454       15.2642207690
  C        14.8750639851        8.5631018147       12.4515522425
  C        42.9465213224       31.9615444661        5.8089786783
  C        43.6918381584       30.8855066779        5.0956671892
  C        44.6561845795       31.1914631316        4.1231078439
  C        45.2776845435       30.1718829534        3.4053829846
  C        44.9542360486       28.8215109617        3.6432579605
  C        44.0210927861       28.5238431168        4.6543729295
  C        43.3928285645       29.5405719146        5.3665850034
  C        45.5631575679       27.7241222533        2.8579423477
  C        45.5334171967       27.7175026982        1.4366442122
  C        44.8270687620       28.7077028852        0.6836738525
  C        35.1001769006       26.6387996981        0.7495156078
  C        35.0646461468       26.6160605313        3.5598698239
  C        18.1485493187        3.2470212764        5.7064984955
  C        17.4298271662        4.3437627986        4.9974193992
  C        16.4148795188        4.0524760191        4.0735402802
  C        15.7665594455        5.0831189445        3.3982107725
  C        16.1209840844        6.4284018896        3.6211395417
  C        17.1120669199        6.7117604601        4.5787270314
  C        17.7597588081        5.6828625542        5.2584750397
  C        15.4905131801        7.5240732026        2.8486758919
  C        15.4964448575        7.5073748250        1.4275457847
  C        16.1932393256        6.5056968122        0.6808466639
  H        10.6721964866       12.4653539863        3.9051451111
  H        11.6943716580       10.5504688662        2.6632808896
  H        15.3920969699       11.1694047832        4.7712802503
  H        14.3516652339       13.0722611648        6.0164591313
  H        13.3759768406       11.6310038098        1.2013503123
  H        50.3229696133       22.7488306714        3.9872380902
  H        49.3197710721       24.6233202971        2.6811995480
  H        45.6418606656       24.1605539720        4.8631672772
  H        46.6628725414       22.2895846095        6.1713776385
  H        47.6296060335       23.5758610368        1.2463112407
  H        14.8720902843        8.5883822074        4.6085786728
  H        50.2872085046       22.7030080141       12.0601569243
  H        49.2691257213       24.5758811320       13.3602127736
  H        45.6100841037       24.1084452490       11.1467467681
  H        46.6523456151       22.2530970172        9.8325415732
  H        47.6074969454       23.5517863379       14.7969097554
  H        40.6609425467       17.1467935715       11.4288452752
  H        48.6869379637       14.0949387356        7.7999612608
  H        10.6811269897       12.4660538781       12.0925364498
  H        11.6893982273       10.5240897593       13.2962394068
  H        15.3941908155       11.1600423332       11.2067789205
  H        14.3656177391       13.0884613467        9.9914955177
  H        13.3756984534       11.6219980460       14.7530703961
  H        47.9301396490       14.2182455934        9.7109485155
  H        47.7800774908       14.3733892887        6.4949825176
  H        49.0841437413       18.5524944024       10.8675875914
  H        10.4159536995       14.1342899036        7.9987094397
  H        24.4820447979        3.0291237384        3.9158036307
  H        25.6207927822        4.8893679116        2.6890510265
  H        23.2459356933        7.7543804180        4.8458745546
  H        22.1252770140        5.8843924518        6.0737320687
  H        23.8076253454        5.7930603835        1.2646522794
  H        36.3630971402       32.1902039345        3.9803299143
  H        35.2205498288       30.3700360721        2.7118812681
  H        37.4772290301       27.4377653162        4.9052905693
  H        38.5999607622       29.2710678899        6.1830449237
  H        36.9980782532       29.4516714030        1.2993305583
  H        25.7281744148        8.6142596953        4.6505060068
  H        36.4556907969       32.2420604345       12.1140250694
  H        35.3459352330       30.4272360151       13.4142570348
  H        37.5473163259       27.4876074093       11.1731613858
  H        38.6314459669       29.3141953160        9.8601394486
  H        37.0352809824       29.4704626938       14.8517005232
  H        46.1092402392       26.5874228901       11.3856577976
  H        44.6683603118       35.1161756209        7.8138996050
  H        24.4350892774        3.0409568856       12.0868244433
  H        25.5649547358        4.8814906511       13.3378549480
  H        23.1620034979        7.7682868420       11.2426454189
  H        22.0436676743        5.9156806296        9.9918211276
  H        23.7860733294        5.7943618014       14.8157271658
  H        44.9540508903       34.3905591796        9.6952527041
  H        44.9021665727       34.2069594656        6.4905189665
  H        40.6666454097       33.2092907801       10.8533215702
  H        23.1504153413        1.9576521112        8.0052506505
  H        25.8194663568       19.6485099444        3.9068298296
  H        23.6487807654       19.6893904681        2.6751729982
  H        22.3554711650       16.2166603570        4.8574464977
  H        24.5305797603       16.1909534904        6.0854044736
  H        23.7243047771       17.6469806844        1.2464313988
  H        35.1480549983       15.4673262227        3.9756178314
  H        37.2674572078       15.4402823437        2.6563255896
  H        38.7026645073       18.8063084408        4.9185452324
  H        36.5759799016       18.8163115023        6.2369564927
  H        37.2296946439       17.4321675589        1.2498563781
  H        20.3614695331       17.9764354040        4.6700211813
  H        35.2008854164       15.4828439735       12.1007792728
  H        37.3323302308       15.4441010276       13.3997883076
  H        38.7452539857       18.8375281633       11.1647948563
  H        36.6079828008       18.8564904643        9.8619112526
  H        37.2487899458       17.4416475979       14.7989208250
  H        35.1656550346       26.6825494712       11.4068172975
  H        28.5033940305       21.0821647962        7.9719001264
  H        25.7480516176       19.6312511006       12.1565658765
  H        23.5645610818       19.6776170106       13.3760869512
  H        22.3022964045       16.1705588450       11.2311755929
  H        24.4865555492       16.1443164422       10.0107205776
  H        23.7014916589       17.6292758776       14.7956258315
  H        29.0029590097       21.7235985065        9.7592457593
  H        29.1653768589       21.7384325839        6.6268280966
  H        32.0935031977       18.5598109557       10.9822288731
  H        27.3989894179       19.0703379756        8.0782023905
  H        14.8499410513       19.6425962533       12.1461470447
  H        17.0120820283       19.6835190215       13.3899665669
  H        18.3009707603       16.1814038829       11.2518702969
  H        16.1346897928       16.1558635228       10.0079939136
  H        16.9218374789       17.6833766831       14.8509330729
  H        46.0930250152       15.4620321757       12.0868244289
  H        43.9716245114       15.4275258695       13.4022909078
  H        42.5674991425       18.8494600353       11.2060864871
  H        44.6891234911       18.8592903687        9.8814654903
  H        44.0327348167       17.3784147384       14.8494090158
  H        20.2896901371       17.9148007178       11.4227952458
  H        46.0398943186       15.3958841783        4.0280140452
  H        43.9067061636       15.3460080665        2.7335542270
  H        42.5188379453       18.7922474084        4.9005911941
  H        44.6590832144       18.8297477058        6.1942179012
  H        44.0137054228       17.3475016083        1.2996569624
  H        46.1994073709       26.6826123920        4.6234122544
  H        52.7411923348       21.0625838240        8.1946916049
  H        14.8815485621       19.6717075945        3.8939436699
  H        17.0826871065       19.7425638201        2.7149736447
  H        18.3375061953       16.2298169075        4.8553005632
  H        16.1381950562       16.1825076091        6.0433792133
  H        16.9440962822       17.7012034362        1.2984891201
  H        52.3223496357       21.6732076137        6.2942806431
  H        52.0129811599       21.7018261962        9.4955602907
  H        49.0674800643       18.6075986729        5.2042053051
  H        13.2477848091       19.0159760101        7.9774331391
  H        29.9587137215       12.4282124852       12.1998748639
  H        28.8883368947       10.5030048583       13.3816150787
  H        25.2339654997       11.2215505148       11.2315204251
  H        26.3207178955       13.1409423190       10.0500685690
  H        27.1817512805       11.6654691892       14.7921084896
  H        30.9952514138       22.7891966686       12.0017114069
  H        32.0038730410       24.6665159110       13.3027135214
  H        35.7060167648       24.1306351933       11.1797501429
  H        34.6760933117       22.2612695320        9.8734030417
  H        33.6619842624       23.5865383188       14.7577372384
  H        25.6982695032        8.5990710640       11.4041246063
  H        30.8913207372       22.7077085313        3.9434971844
  H        31.9076487257       24.5737625758        2.6394649511
  H        35.5560249580       24.1367387883        4.8758284894
  H        34.5232912529       22.2716216184        6.1791077407
  H        33.6123625856       23.5746599864        1.2098003797
  H        40.5941207629       17.0867616836        4.6656478095
  H        32.5174891077       14.1437973775        8.2497486788
  H        29.9061983109       12.4924866120        3.9521112439
  H        28.8726822829       10.6010514249        2.6917480526
  H        25.1897528471       11.1989526953        4.8311648523
  H        26.2404525694       13.0853532476        6.0927691734
  H        27.1787910405       11.6786840603        1.2414135044
  H        33.2981682714       14.1826384929        6.4402484801
  H        33.4097870332       14.4060386182        9.6035316604
  H        32.1543242972       18.5558026518        5.2097798254
  H        30.2254079737       14.1886627964        8.0779819168
  H        16.1186197824        2.9633137313       12.1301534278
  H        14.9535511989        4.8204352719       13.3228626027
  H        17.3657239697        7.6859604049       11.2095563481
  H        18.5143439925        5.8184369044       10.0097481162
  H        16.7536860094        5.7395936956       14.7715768962
  H        44.8276647373       32.1402733183       11.9774543117
  H        45.9369313055       30.3414316731       13.3068473264
  H        43.6831586309       27.3780888734       11.1518060839
  H        42.6004745688       29.1899077080        9.8091515493
  H        44.2304260006       29.4368512021       14.7690059269
  H        14.8513464287        8.5464557990       11.3633295125
  H        44.8995460991       32.2341460792        3.9314467417
  H        46.0244151374       30.4131251775        2.6519778864
  H        43.7644853409       27.4840802773        4.8462391214
  H        42.6466373917       29.3176930934        6.1253059583
  H        44.2686212331       29.4706542951        1.2182249765
  H        35.0164321939       26.6281342097        4.6471408292
  H        36.6051982196       35.1340525207        8.1806391463
  H        16.1439141976        3.0129001985        3.9036473379
  H        14.9743924632        4.8562803561        2.6879485008
  H        17.3953512994        7.7472517355        4.7558447583
  H        18.5423822748        5.8933937028        5.9834835998
  H        16.7647334556        5.7554984579        1.2192724559
  H        36.2784711038       34.4825849998        6.2730424291
  H        36.3806868973       34.2091405411        9.4995213915
  H        40.5796367730       33.2019349755        5.1539065720
  H        17.4708498460        1.9473337643        7.9740936450
  H        29.1500599694       19.4258410078       12.5225483851
  H        29.5819149438       19.7021359829        3.5855085280
  H        30.5298359153       15.6118400922        3.9368674548
  H        31.5425659043       15.5723211625       12.5435960538
  H        28.0079050353       18.3336481311       14.6614630789
  H        29.6927259504       15.0610408208       14.2488121915
  H        31.6461375958       19.8190717029        1.3767811564
  H        32.1707949307       16.0961855067        2.1584076838
  H        32.3063728593       18.3271182723       14.5057560543
  H        18.8537006603        0.8692504262       12.3350840729
  H        40.5280672080       35.2289359771        3.9520688986
  H        42.3240650702       34.4188469361        3.5905248577
  H        22.0879483925        0.6920129911       12.3516715528
  H        11.5970678283       18.7129496268       12.3824060500
  H        52.2650323493       18.4310581832        3.6773942784
  H        49.2552398373       16.4770414478        3.5846050438
  H        10.1504866437       15.7982068325       12.2926900748
  H        50.8501012449       17.6924017733        3.9543071211
  H        10.0463290798       17.3945163572       12.0519456196
  H        20.2151440372        0.0024521086       12.0419417968
  H        39.1836722885       36.1243737847        3.6865131704
 Ni        30.8673754408       17.8588265145        2.9129937975
 Ni        31.2827298349       16.2560598136       -0.1705986703
 Ni        30.0557406170       18.8622849013       -0.1663113761
 Ni        30.1026162278       17.4248270864       13.1611192282
  O        10.6499848477       14.3649984196        5.4857803405
  O        12.6132057547       14.6574855184        6.5838949803
  O        49.1481532043       16.8458648070        7.9897771153
  O        50.3502892144       20.9359799566        5.6480877590
  O        48.3486118810       20.5933946097        6.6659374555
  O        11.0517549548       17.0538511676        6.5007031153
  O        50.3210319369       20.8817162567       10.4068812100
  O        48.3467956634       20.5868329591        9.3271699533
  O        49.5438486366       18.2484942130       10.0682958471
  O        12.3591123443       18.6246639620        7.9996543560
  O        48.6932827152       14.1485431079        6.7512864303
  O         8.2098488046       14.2103851320        9.3225926304
  O        10.7353915653       14.5067253133       10.6643046332
  O        12.5718410111       14.5827923241        9.3285007857
  O        22.8444452147        2.0428731318        5.4872954674
  O        21.6053174136        3.5921183134        6.5898693133
  O        42.0581036076       34.1372255539        7.9789572287
  O        37.9813153146       33.1368577601        5.5724790879
  O        39.2175080487       31.5752907772        6.6660789860
  O        20.3083599340        1.0394401714        6.5020571945
  O        38.0245613293       33.1852889223       10.4156540204
  O        39.2186652350       31.5832339309        9.3271249814
  O        40.6522709098       33.7692648768       10.0602127061
  O        18.2554772959        1.3760637721        7.9968087814
  O        44.6222337100       35.1005539825        6.7587422317
  O        24.2053478475        0.0000030871        9.3208053803
  O        22.7528812285        2.0577586575       10.5837696385
  O        21.6241966653        3.5958584522        9.3422417352
  O        27.4994169712       18.7539753585        5.4976909420
  O        26.7666429470       16.9338440206        6.6541123424
  O        30.6671835760       19.4047373218        8.0663566106
  O        33.5868206825       16.2787519003        5.6658590544
  O        34.2745368625       18.1697902987        6.7365601919
  O        29.5733174636       17.0639955055        6.5822015239
  O        33.6184331755       16.3278940322       10.4122916573
  O        34.3059274312       18.2462885557        9.4069219637
  O        31.6544568244       18.3112885461       10.1526475796
  O        30.3231831964       15.1549135903        8.0850840405
  O        28.5531217881       21.0329176112        6.9024124001
  O        28.5128792382       20.9588281257        9.4121817234
  O        27.4567358326       18.6783154515       10.6598121901
  O        26.6941765335       16.9288565044        9.4127348469
  O        13.1491079640       18.6928091748       10.5876344526
  O        13.9193941068       16.9161540952        9.4049506724
  O        50.5964340620       19.3502529436        8.0205046913
  O        47.6832171549       16.3272262888       10.4173988954
  O        46.9524102698       18.1761199713        9.3240938081
  O        11.0698077451       17.0154132537        9.4896511201
  O        47.6764151867       16.3354393842        5.6531121737
  O        46.9288130890       18.2357300540        6.6654172033
  O        49.5689105952       18.3177616576        5.9822968315
  O        10.3187008863       15.1001476252        7.9970624133
  O        52.6707392252       21.0278406463        9.2418227997
  O        12.1468040707       20.8911760161        6.6732522771
  O        13.1085382970       18.6135083857        5.3255550954
  O        13.9571628097       16.9870169495        6.6655340485
  O        29.9913121251       14.4371464029       10.7270577874
  O        28.0878961728       14.6540948498        9.4931671043
  O        32.1422596716       16.8576941856        8.0837674506
  O        30.9671075883       20.9561076078       10.4073249804
  O        32.9481324353       20.6027644910        9.3390244065
  O        29.5691084729       17.0738849998        9.5782504892
  O        30.8519349632       20.8932525452        5.6607648975
  O        32.8711243828       20.5866770178        6.6639317812
  O        31.6846706977       18.2508924647        6.0023582827
  O        28.2859113609       18.6752653298        8.0778711347
  O        32.4938556797       14.2129697149        9.3293269952
  O        32.4076525108       14.2086174866        6.8279024398
  O        29.9124845733       14.4358720529        5.4877867941
  O        28.0381452847       14.5864994346        6.7539133929
  O        17.8892285559        1.9665438049       10.6627623908
  O        18.9561916476        3.5270510341        9.4079630254
  O        39.1686501411       34.1387465799        7.9971301556
  O        43.2801855919       33.0589567250       10.3316891261
  O        42.0344146540       31.5064835890        9.2415949687
  O        20.3175838206        1.0366449011        9.4801834531
  O        43.2760724226       33.1825927590        5.5749149853
  O        42.0052296713       31.5841487378        6.5830107416
  O        40.5789413600       33.7749013892        5.9358192924
  O        22.3672631504        1.3844827452        7.9979709463
  O        36.6727515638       35.0997314880        9.2333006286
  O        16.4456055219        0.0642205447        6.6682848767
  O        17.9364854487        2.0432925848        5.3264390311
  O        18.9189788529        3.5930950989        6.6659422920
  O        29.8583267801       18.9125624784        4.0841705037
  O        29.8269462250       18.9756775301       11.9816957390
  O        31.2168221779       16.2680114618        4.1640832697
  O        31.3374501529       16.3599188495       12.0101575521
  O        31.8073509488       16.8441519615        1.6449642448
  O        29.7836745596       15.9734342813       14.5687854199
  O        31.4256283184       17.9515249711       14.6696754304
  O        30.7596643006       19.4244890729        1.4289976747
  O        28.8828474130       18.6787772478       14.4138037455
  O        39.4568082225       35.2436825408        4.0019332596
  O        19.1417223652        0.0047536168       11.9905087474
  O        41.9695567868       35.1726436654        4.0871953646
  O        21.6914107457       -0.0692773436       11.8959261788
  O        51.3651945688       18.6142826627        4.0054411705
  O        10.7512314988       18.7471997357       11.9049157894
  O        50.0797822591       16.4127151068        4.0916838766
  O         9.5246551097       16.4830950047       11.9911938164
 Zr         9.2969627035       16.0527443390        6.1824755112
 Zr        49.8362149300       16.0066430146        9.7464010655
 Zr        22.0733880336        0.0297053788        6.1890123024
 Zr        42.4610115876       35.1533931142        9.8008859396
 Zr        29.6013281619       19.0823759785        6.3049371287
 Zr        29.5802410527       19.1793984752        9.8649878201
 Zr        11.0384070734       19.0516887837        9.8277120812
 Zr        11.0441835846       19.1546798469        6.2509765208
 Zr        31.3531993064       16.0966764975        9.8742423845
 Zr        31.4060624029       16.0093905868        6.2993096677
 Zr        18.6011747868       -0.0013166489        9.7634683119
 Zr        18.5065949793       -0.0075802313        6.2136148657
 Zr        12.3023081068       16.3236850888        7.9903097021
 Zr        48.6168608572       18.8330282145        8.0103212898
 Zr        20.3148488506        2.4734475655        7.9905132524
 Zr        40.6435186383       32.6870083692        7.9781325114
 Zr        28.3427415959       16.3414553465        8.0855419521
 Zr        32.6350441048       18.8349937093        8.0609252018
  H        32.3981264656       15.2857437664       -0.5812115377
