     576
 i =      158, E =     -4779.9563816355
  C        11.8581894874       14.0537916197        5.7415926536
  C        12.4558086655       12.8903397916        5.0234671625
  C        11.7050839549       12.1733744354        4.0796410975
  C        12.2814379945       11.1112043846        3.3871577182
  C        13.6211238005       10.7395134763        3.6168839610
  C        14.3531537505       11.4409521779        4.5927557632
  C        13.7802746640       12.5059108228        5.2843287127
  C        14.2609515020        9.6490775204        2.8434830864
  C        14.2573115815        9.6574810682        1.4217672806
  C        13.7448766416       10.7598889497        0.6677553566
  C        49.1263091257       21.2334195624        5.8798073516
  C        48.5495782416       22.4011034571        5.1524880779
  C        49.2998277368       23.0688871569        4.1719682813
  C        48.7328234059       24.1079179666        3.4387264480
  C        47.4020140275       24.5090192038        3.6668094735
  C        46.6706977089       23.8594082897        4.6795553819
  C        47.2331817560       22.8145337555        5.4089189156
  C        46.7720254580       25.5868401886        2.8695323672
  C        46.7617264193       25.5575584014        1.4477699102
  C        47.2616179079       24.4424261592        0.7042886029
  C        14.8612378525        8.5710776526        0.7085675107
  C        14.8909350120        8.5966327412        3.5201378737
  C        49.1130463122       21.2035843743       10.1452408368
  C        48.5278256520       22.3647863741       10.8725700477
  C        49.2673746286       23.0262091912       11.8647787450
  C        48.6909695760       24.0607293486       12.5961803214
  C        47.3602445739       24.4568379989       12.3585261582
  C        46.6393877937       23.8110012123       11.3359441500
  C        47.2129529243       22.7750261587       10.6042886567
  C        46.7219865365       25.5319328179       13.1494944366
  C        46.7341922230       25.5285120532       14.5711742967
  C        47.2494730436       24.4291979902       15.3275270323
  C        40.6340636021       17.1399809785       15.3171453826
  C        40.6562122815       17.1871454151       12.5049175389
  C        11.8824512837       14.0865215779       10.2851835105
  C        12.4716131116       12.9099096950       10.9889752337
  C        11.7149105321       12.1785573193       11.9171109700
  C        12.2813233144       11.0960839762       12.5857069126
  C        13.6192530186       10.7204378441       12.3520023189
  C        14.3561640839       11.4338395779       11.3887620060
  C        13.7909104779       12.5150969253       10.7160363093
  C        14.2531714582        9.6240432108       13.1226267161
  C        14.2532003113        9.6448067095       14.5444769908
  C        13.7442073689       10.7542061908       15.2914975617
  C        22.5115038241        3.2429537437        5.7541848383
  C        23.2285717024        4.3488628969        5.0544841594
  C        24.2292083060        4.0674005915        4.1129234142
  C        24.8590928739        5.1058857721        3.4314435673
  C        24.5036874532        6.4476755476        3.6724988467
  C        23.5306071250        6.7209991589        4.6508347043
  C        22.8963339017        5.6840297535        5.3304206338
  C        25.1103730413        7.5538482798        2.8966417912
  C        25.0798183864        7.5482576178        1.4749812855
  C        24.3778764422        6.5482040723        0.7297164937
  C        38.2952703708       31.9265772922        5.8530856058
  C        37.5528455234       30.8393701792        5.1586387667
  C        36.6091535250       31.1416702180        4.1631125782
  C        35.9868242703       30.1211759176        3.4513328513
  C        36.2855043168       28.7671850255        3.7123162533
  C        37.1925333381       28.4748705158        4.7510792117
  C        37.8226142945       29.4941948650        5.4593469236
  C        35.6875027296       27.6773225961        2.9145603691
  C        35.7037909335       27.7091261288        1.4808784277
  C        36.4143030261       28.7005617187        0.7526390123
  C        25.6991720378        8.6199021345        0.7545575270
  C        25.7089180646        8.6282019134        3.5668120971
  C        38.3262399171       31.9604966462       10.1571369700
  C        37.6028560101       30.8932391111       10.8955561035
  C        36.7019281701       31.2036309295       11.9279981207
  C        36.0958695957       30.1880925090       12.6620858132
  C        36.3665711803       28.8299681207       12.3871661843
  C        37.2400528403       28.5321271188       11.3195020280
  C        37.8533411710       29.5440731144       10.5904816155
  C        35.7615413232       27.7344470456       13.1682385534
  C        35.7423501461       27.7373186829       14.6010142180
  C        36.4321287872       28.7156715448       15.3669626136
  C        46.1363454374       26.6212357396       15.2812833288
  C        46.0876799951       26.5800634481       12.4734274068
  C        22.4594147773        3.2551233491       10.2574835980
  C        23.1523864166        4.3656251117       10.9824403962
  C        24.1589154711        4.0807998488       11.9185340235
  C        24.7857420107        5.1114172110       12.6154067211
  C        24.4257710820        6.4563687965       12.3981207786
  C        23.4414493416        6.7348162610       11.4310676831
  C        22.8103293420        5.7041994322       10.7348579824
  C        25.0559587479        7.5552830366       13.1724848235
  C        25.0523007109        7.5484606504       14.5956036993
  C        24.3631020816        6.5491822357       15.3527824828
  C        26.6408953571       17.8297721213        5.7506679096
  C        25.3354380552       17.8755650036        5.0300557774
  C        25.0594651438       18.8770742839        4.0847689251
  C        23.8415223191       18.8962440638        3.4092041323
  C        22.8564267681       17.9174884997        3.6567215680
  C        23.1263238193       16.9399922068        4.6337777641
  C        24.3470694736       16.9152209800        5.3060270480
  C        21.5807215644       17.9024918712        2.8982901842
  C        21.5807999190       17.8845657394        1.4749965006
  C        22.7849768634       17.7584363115        0.7140634353
  C        34.4469234779       17.2015965410        5.9143931488
  C        35.7269199543       17.1546954744        5.1802487790
  C        35.9400523112       16.1957950498        4.1694459190
  C        37.1137704271       16.2018920782        3.4265480841
  C        38.1298133785       17.1505795776        3.6798160403
  C        37.9267869436       18.0754660738        4.7269395717
  C        36.7433931567       18.0881137581        5.4556831074
  C        39.3770697871       17.1720856261        2.8970763950
  C        39.3743718239       17.1644173499        1.4701912559
  C        38.1734334463       17.2865870312        0.7110869893
  C        20.3341111496       17.9043908166        0.7668549405
  C        20.3560681995       17.9036146339        3.5815501270
  C        34.4838624948       17.2439465645       10.1756004870
  C        35.7824977756       17.1713985256       10.8923584128
  C        35.9906727572       16.1993134969       11.8843522420
  C        37.1739846891       16.1862143264       12.6140904420
  C        38.1835452818       17.1401805565       12.3706955617
  C        37.9827200454       18.0811867118       11.3418903961
  C        36.7953789219       18.1034638830       10.6173679172
  C        39.4248268197       17.1635648732       13.1668602354
  C        39.3976550474       17.1641914683       14.5915094321
  C        38.1832450974       17.2856228120       15.3307051563
  C        35.0951364168       26.6626731300       15.3005316609
  C        35.1943145684       26.6526087030       12.4840440466
  C        26.5724967601       17.8268497743       10.3255962244
  C        25.2588760954       17.8695573269       11.0302019115
  C        24.9945809004       18.8674826573       11.9811845800
  C        23.7767026183       18.8874555127       12.6546240916
  C        22.7922845336       17.9103970080       12.4013408936
  C        23.0510099032       16.9388887299       11.4170953268
  C        24.2696724812       16.9159851460       10.7421858026
  C        21.5292227806       17.8864741889       13.1738516752
  C        21.5544119809       17.8729731332       14.5958796415
  C        22.7720575909       17.7524922905       15.3369906081
  C        14.0456721327       17.8278114932       10.2889014428
  C        15.3505684811       17.8813230453       11.0155094389
  C        15.6087888678       18.8802752271       11.9670425587
  C        16.8178836226       18.8964876458       12.6600997196
  C        17.8035383218       17.9170449875       12.4227104171
  C        17.5500593048       16.9424205059       11.4389832283
  C        16.3400326347       16.9212447976       10.7484844314
  C        19.0729788165       17.8952226074       13.1905574331
  C        19.0729253526       17.8878567964       14.6139403811
  C        17.8671001980       17.7871519050       15.3754764163
  C        46.8054737377       17.2180640220       10.1577773730
  C        45.5182401862       17.1582745543       10.8994885773
  C        45.3213210246       16.2022848643       11.9085818400
  C        44.1424141196       16.1947863910       12.6470979408
  C        43.1276356422       17.1404119240       12.3968361051
  C        43.3211861267       18.0717488447       11.3574595801
  C        44.5018865121       18.0857261827       10.6219315589
  C        41.8784328264       17.1619658507       13.1841078189
  C        41.8827387935       17.1572697379       14.6101027899
  C        43.0862103200       17.2597167683       15.3686048627
  C        20.3201791906       17.8973770548       15.3216314444
  C        20.2968305887       17.8763062852       12.5078732582
  C        46.7849020815       17.2312997300        5.8899764159
  C        45.4822506998       17.1318005966        5.1801239468
  C        45.2645266619       16.1562146899        4.1945505082
  C        44.0771628510       16.1466303888        3.4685970863
  C        43.0742203435       17.1072748342        3.7106321005
  C        43.2814981389       18.0478128075        4.7381660993
  C        44.4705929032       18.0657146608        5.4581550336
  C        41.8318916692       17.1470360228        2.9136990867
  C        41.8592476013       17.1466710393        1.4872494027
  C        43.0744109957       17.2523082136        0.7490285948
  C        46.1539891069       26.6375889827        0.7260215187
  C        46.1616310756       26.6557135980        3.5356541573
  C        14.0445196228       17.8292993655        5.7077468312
  C        15.3664808424       17.8969710678        5.0153425260
  C        15.6467673022       18.9105418317        4.0869538763
  C        16.8769435841       18.9409851496        3.4334336493
  C        17.8551599776       17.9571376029        3.6827439471
  C        17.5810862185       16.9713199703        4.6481432498
  C        16.3528562185       16.9404163387        5.3048148213
  C        19.1233660454       17.9262951661        2.9150880856
  C        19.0993223177       17.9035945507        1.4924317999
  C        17.8799742517       17.7943913001        0.7524241916
  C        28.8083598495       14.0922460634       10.3932310098
  C        28.1905838512       12.9236776540       11.0830555963
  C        28.9098213259       12.1843776783       12.0343243951
  C        28.3080447051       11.1105538106       12.6850880328
  C        26.9726284251       10.7512382114       12.4097004534
  C        26.2755386774       11.4713653191       11.4229301858
  C        26.8747576069       12.5456603646       10.7702906136
  C        26.3037859681        9.6707288018       13.1693810441
  C        26.2942157064        9.6965216648       14.5903234392
  C        26.7938755441       10.8111243329       15.3360766048
  C        32.1810826634       21.2503970082       10.1396226842
  C        32.7713934321       22.4154688226       10.8491523096
  C        32.0319297022       23.0749284940       11.8461519289
  C        32.6024063853       24.1097519988       12.5774106564
  C        33.9284312571       24.5262605366       12.3330420983
  C        34.6443780477       23.8904455592       11.2976635816
  C        34.0795249786       22.8445853140       10.5722495317
  C        34.5548486016       25.5937991424       13.1351099384
  C        34.5171258172       25.5742392573       14.5664513737
  C        34.0182756266       24.4612678689       15.2970267555
  C        25.6892577738        8.6165804253       15.3096700926
  C        25.6678389972        8.6193554792       12.4960725877
  C        32.0800967812       21.2098895841        5.8777116600
  C        32.6372820137       22.3605970093        5.1457537566
  C        31.9294128190       22.9788460008        4.0936933809
  C        32.5100437428       24.0048103537        3.3572590364
  C        33.8106334800       24.4791010528        3.6571423611
  C        34.4849607290       23.8901479294        4.7524886742
  C        33.9213898531       22.8443115948        5.4695336813
  C        34.4570857588       25.5473344240        2.8819770243
  C        34.4645771383       25.5538786227        1.4472712190
  C        33.9933680674       24.4531834873        0.6820677078
  C        40.6219223346       17.1368287509        0.7626859989
  C        40.6023847466       17.1917814988        3.5756774535
  C        28.7419608853       14.0713862595        5.8198255240
  C        28.1321029108       12.9270868365        5.0813914470
  C        28.8646518503       12.2407595156        4.1004771805
  C        28.2857500561       11.1831086022        3.4033617938
  C        26.9578322652       10.7848583123        3.6606119253
  C        26.2431183414       11.4597420301        4.6681452061
  C        26.8202687911       12.5176930089        5.3676481048
  C        26.3171649029        9.6930286828        2.8890474234
  C        26.3025595629        9.7078520897        1.4672603823
  C        26.7956380444       10.8179363792        0.7120754155
  C        18.1352062430        3.1799253224       10.3169951442
  C        17.4053604088        4.2775145371       11.0155059291
  C        16.3914606263        3.9989208213       11.9448303079
  C        15.7435361853        5.0387638685       12.6084495996
  C        16.0934606685        6.3826519778       12.3670247529
  C        17.0806906800        6.6523625663       11.4011008875
  C        17.7299271175        5.6151100882       10.7360094158
  C        15.4695069847        7.4905077957       13.1300997262
  C        15.4859393218        7.4906210483       14.5518136426
  C        16.1878804092        6.4973189994       15.3050562496
  C        42.9457610729       31.8591896955       10.0726903244
  C        43.6461453920       30.7717425022       10.8168507428
  C        44.5929139912       31.0930054515       11.8017423553
  C        45.1986057849       30.0874548995       12.5493859959
  C        44.8709381470       28.7345229515       12.3355748836
  C        43.9435227761       28.4202563994       11.3238464679
  C        43.3345595157       29.4254089856       10.5759347991
  C        45.4888110770       27.6553498661       13.1387132870
  C        45.4934747707       27.6812700767       14.5603856228
  C        44.8063058945       28.6893235125       15.3069401356
  C        14.8573321353        8.5633902699       15.2641061043
  C        14.8734763011        8.5618598010       12.4515018848
  C        42.9460128161       31.9609609710        5.8091191876
  C        43.6909807593       30.8850181082        5.0951632382
  C        44.6568062785       31.1909160512        4.1240838812
  C        45.2782942037       30.1713713493        3.4062873450
  C        44.9533051084       28.8211313482        3.6427385670
  C        44.0181126807       28.5234523619        4.6518808973
  C        43.3897680198       29.5401932833        5.3640250672
  C        45.5627656239       27.7239104601        2.8575624961
  C        45.5337673187       27.7176201663        1.4362669293
  C        44.8274844549       28.7079117432        0.6833386899
  C        35.0711578003       26.6508037285        0.7476611726
  C        35.0985161568       26.5921132105        3.5660284264
  C        18.1484345509        3.2462530423        5.7069228576
  C        17.4294090947        4.3435336463        4.9977608146
  C        16.4156307325        4.0521484545        4.0727596853
  C        15.7672698780        5.0827255389        3.3972259642
  C        16.1204371108        6.4280994583        3.6212994770
  C        17.1100425262        6.7115706637        4.5803795805
  C        17.7577320725        5.6826662421        5.2602022386
  C        15.4903899968        7.5239486540        2.8487013211
  C        15.4971899510        7.5078392377        1.4275403902
  C        16.1942016233        6.5062796298        0.6808714237
  H        10.6736523497       12.4690998166        3.9011279912
  H        11.6957353476       10.5542639567        2.6589706132
  H        15.3893500098       11.1644727625        4.7763734648
  H        14.3486475614       13.0675237109        6.0218353995
  H        13.3780877792       11.6321325042        1.2010177097
  H        50.3226713360       22.7490964638        3.9876296784
  H        49.3192379229       24.6234592648        2.6812990289
  H        45.6408166260       24.1593106301        4.8619441278
  H        46.6616824680       22.2884630566        6.1700741357
  H        47.6294348281       23.5757296863        1.2459527325
  H        14.8700125057        8.5872278916        4.6084197148
  H        50.2875935263       22.7037025020       12.0592696797
  H        49.2693034624       24.5766020064       13.3594296061
  H        45.6095574467       24.1072781982       11.1477147756
  H        46.6515674832       22.2518159069        9.8338514665
  H        47.6076329179       23.5518214932       14.7966346061
  H        40.6641660966       17.1589298874       11.4169447401
  H        48.6863253375       14.0952039500        7.7998397359
  H        10.6821446164       12.4692535976       12.0960097290
  H        11.6900190156       10.5272406599       13.3000402789
  H        15.3907404236       11.1540451576       11.2009599350
  H        14.3622780723       13.0829365970        9.9855537916
  H        13.3774948944       11.6228106841       14.7527710582
  H        47.9294254132       14.2213370368        9.7099549650
  H        47.7804326885       14.3766913200        6.4944047006
  H        49.0810106527       18.5514105904       10.8665433053
  H        10.4147661255       14.1344395998        7.9984553060
  H        24.4903268337        3.0282449520        3.9251054604
  H        25.6349051030        4.8870263229        2.7008936516
  H        23.2478780461        7.7541083548        4.8420727753
  H        22.1225406204        5.8845624286        6.0675002563
  H        23.8201906598        5.7895566118        1.2711337165
  H        36.3903176500       32.1850652946        3.9485587075
  H        35.2583371628       30.3624720620        2.6804552879
  H        37.4337811997       27.4351832802        4.9626898886
  H        38.5515082683       29.2711312871        6.2349718160
  H        36.9873312180       29.4442027431        1.2984737348
  H        25.7463023529        8.6090991731        4.6545152480
  H        36.4991648356       32.2485405257       12.1516929735
  H        35.3934915537       30.4377251506       13.4541163489
  H        37.4652587385       27.4909814818       11.0981626712
  H        38.5530447473       29.3141787423        9.7906135924
  H        37.0193833008       29.4698426418       14.8514618104
  H        46.1082159628       26.5870040713       11.3853726025
  H        44.6670586180       35.1153963163        7.8141047634
  H        24.4403534000        3.0428815766       12.0818267213
  H        25.5699472301        4.8829810360       13.3340584107
  H        23.1507777712        7.7685421844       11.2551610501
  H        22.0344711209        5.9155780665       10.0025603259
  H        23.7935166774        5.7918665983       14.8218692085
  H        44.9498203024       34.3871865971        9.6934045087
  H        44.8975530394       34.2049824188        6.4910207777
  H        40.6610621311       33.2050781643       10.8510331762
  H        23.1507323925        1.9557657105        8.0053859574
  H        25.8067998712       19.6443606858        3.8985355212
  H        23.6340549582       19.6800679411        2.6838347417
  H        22.3790221914       16.1752442721        4.8356644596
  H        24.5633144965       16.1455091330        6.0431550629
  H        23.7250814693       17.6336260181        1.2433430705
  H        35.1727753974       15.4452010811        3.9928339680
  H        37.2775142603       15.4521966226        2.6553915443
  H        38.6992110875       18.8139148389        4.9318721709
  H        36.5739789661       18.8253886328        6.2370240274
  H        37.2362718257       17.4227830395        1.2427148680
  H        20.3626127017       17.9414319366        4.6695352135
  H        35.2053514113       15.4711311944       12.0733285763
  H        37.3378722130       15.4306167272       13.3792107766
  H        38.7553671957       18.8222823257       11.1481057644
  H        36.6197039911       18.8509249173        9.8473312575
  H        37.2537635220       17.4180882212       14.7849448182
  H        35.1868033959       26.6725690946       11.3957775411
  H        28.4968277408       21.0889036346        7.9933605473
  H        25.7558692113       19.6204252354       12.1725357501
  H        23.5703913395       19.6655732057       13.3863601028
  H        22.2995713473       16.1784422092       11.2145603812
  H        24.4842000003       16.1532483175        9.9975056346
  H        23.7023003897       17.6240787055       14.7918758663
  H        29.0043315194       21.7250071342        9.7548472428
  H        29.1598414840       21.7426433773        6.6277443488
  H        32.1303945399       18.5877309110       10.9499125812
  H        27.3988604593       19.0742694720        8.0757844425
  H        14.8511257236       19.6393783208       12.1484895484
  H        17.0137486968       19.6772110704       13.3919774743
  H        18.2998324376       16.1775815591       11.2471609837
  H        16.1319745353       16.1551312893       10.0053362252
  H        16.9243370463       17.6719806248       14.8485694646
  H        46.1102982597       15.4806771286       12.1068468714
  H        43.9903820918       15.4475260772       13.4226277940
  H        42.5468424006       18.8100802953       11.1601705997
  H        44.6690321904       18.8215703192        9.8389499045
  H        44.0285944602       17.3802489722       14.8424305575
  H        20.2894330985       17.9099943745       11.4198459374
  H        46.0423450692       15.4215009876        3.9992312557
  H        43.9120715242       15.3911438364        2.7036850371
  H        42.5144167704       18.7944804629        4.9324741700
  H        44.6521382082       18.8139860666        6.2256320205
  H        44.0083074433       17.3662912196        1.2914681756
  H        46.1974427536       26.6817403368        4.6231467996
  H        52.7403814993       21.0620431264        8.1945705776
  H        14.8905961059       19.6684422968        3.8940750263
  H        17.0926158094       19.7301026081        2.7162778990
  H        18.3261116283       16.2037795650        4.8474684985
  H        16.1258022089       16.1666062782        6.0341117878
  H        16.9468705279       17.6847989583        1.2968517934
  H        52.3190240323       21.6720943591        6.2954076064
  H        52.0101593019       21.6996379981        9.4951209124
  H        49.0652522571       18.6075580174        5.2055426660
  H        13.2469518386       19.0164425845        7.9771291030
  H        29.9396244856       12.4639444703       12.2453544989
  H        28.8672806030       10.5342244601       13.4189378565
  H        25.2441518998       11.2038418500       11.2023826399
  H        26.3334813364       13.1216598193       10.0237467004
  H        27.1486355811       11.6828027040       14.7947260725
  H        31.0126155817       22.7492858637       12.0390469142
  H        32.0240037531       24.6190083035       13.3450690178
  H        35.6687438368       24.1995587736       11.0999163421
  H        34.6449538155       22.3286404814        9.7995419177
  H        33.6853379338       23.5842051590       14.7500199662
  H        25.6952916900        8.6003508069       11.4079919223
  H        30.9197007433       22.6387308744        3.8730241970
  H        31.9512404921       24.4797302513        2.5536894713
  H        35.4859764995       24.2374675102        4.9999352632
  H        34.4641935863       22.3682669864        6.2826388285
  H        33.6450506138       23.5674442715        1.2048468102
  H        40.5956023060       17.1663620343        4.6637949302
  H        32.5181725005       14.1381292321        8.2522303963
  H        29.8898505379       12.5491849156        3.9077916746
  H        28.8616179477       10.6445215015        2.6538568580
  H        25.2160642054       11.1654160688        4.8742597483
  H        26.2641368890       13.0528457714        6.1336879649
  H        27.1502005317       11.6949407538        1.2455708128
  H        33.3058579850       14.2174612230        6.4567207371
  H        33.4117847717       14.3972229645        9.6069596104
  H        32.1497751658       18.6043526973        5.1903003496
  H        30.2187038949       14.1877216614        8.0758851574
  H        16.1210299467        2.9622057336       12.1325545219
  H        14.9554366416        4.8189878100       13.3254834006
  H        17.3609795836        7.6854733651       11.2061320882
  H        18.5100128286        5.8176327738       10.0060327018
  H        16.7541274726        5.7397429013       14.7715582941
  H        44.8298646206       32.1400584917       11.9751282914
  H        45.9391435793       30.3409314829       13.3047608639
  H        43.6792268177       27.3783716093       11.1550848562
  H        42.5961069402       29.1902015049        9.8129882856
  H        44.2304579916       29.4367002665       14.7685889623
  H        14.8483225854        8.5442065763       11.3633228044
  H        44.9010564509       32.2335918911        3.9335532007
  H        46.0259017398       30.4123981076        2.6536881899
  H        43.7595300931       27.4838523594        4.8419697154
  H        42.6415265178       29.3173875966        6.1207707433
  H        44.2684098338       29.4703831678        1.2179495425
  H        35.0659027395       26.5971770428        4.6540769297
  H        36.6044102238       35.1331241423        8.1812550084
  H        16.1458006186        3.0123915353        3.9019816555
  H        14.9760369263        4.8555754350        2.6860099588
  H        17.3918406000        7.7472397980        4.7588224591
  H        18.5390098506        5.8929076937        5.9867538517
  H        16.7653816429        5.7558936368        1.2193842752
  H        36.2805647984       34.4792585339        6.2745801082
  H        36.3840495321       34.2076578740        9.5009648347
  H        40.5747362647       33.1980519883        5.1562158703
  H        17.4705539093        1.9446187324        7.9738460279
  H        29.1102500271       19.3752456180       12.5117237280
  H        28.6820570867       19.8194630030        3.7596118133
  H        32.3511116873       16.3243739593        3.8056161495
  H        31.2482887982       15.4862455283       12.4368212471
  H        28.0563253197       17.9965926271       14.5539867948
  H        29.2814987733       15.0879264873       14.2427664107
  H        31.3937583750       20.6323982602        1.2836566714
  H        33.1659370585       17.0033303653        1.0834922475
  H        28.8522693633       16.9259629919        0.7341398505
  H        32.3450537738       18.2203035938       14.3060220379
  H        18.8534905995        0.8694561452       12.3345928493
  H        40.5275581355       35.2297092074        3.9529630559
  H        42.3183306440       34.4131053609        3.5950275214
  H        22.0882176111        0.6925740767       12.3502268693
  H        11.5973793220       18.7125574502       12.3817349014
  H        52.2647042580       18.4301909840        3.6780286916
  H        49.2537994644       16.4804058821        3.5870946696
  H        10.1508341238       15.7983553289       12.2922668427
  H        50.8492953775       17.6920612532        3.9548451419
  H        10.0454602578       17.3943360087       12.0521380006
  H        20.2132295336        0.0015245809       12.0424355661
  H        39.1831860544       36.1245276994        3.6870614112
 Ni        30.1020350848       16.6395604592        2.8289319661
 Ni        31.0279749812       16.1996209450       -0.2522899664
 Ni        30.1399642466       18.9142119162       -0.4122640513
 Ni        30.1413882994       17.3990924242       12.9966911362
  O        10.6498014023       14.3650114702        5.4856683876
  O        12.6131372004       14.6574385091        6.5838792285
  O        49.1482514969       16.8459915460        7.9897446946
  O        50.3502290128       20.9363097765        5.6484011249
  O        48.3485749653       20.5935566024        6.6660305213
  O        11.0511934630       17.0541425627        6.5003300031
  O        50.3212902227       20.8818050301       10.4067073693
  O        48.3469220657       20.5869843521        9.3271602942
  O        49.5436694344       18.2486506691       10.0684559141
  O        12.3587416289       18.6244059359        7.9997265264
  O        48.6929352527       14.1485859395        6.7511264316
  O         8.2096326655       14.2100548286        9.3225424388
  O        10.7353855954       14.5065985972       10.6643959738
  O        12.5718360394       14.5827033915        9.3284375186
  O        22.8449159070        2.0432113738        5.4869397585
  O        21.6056994305        3.5927336814        6.5895763717
  O        42.0571016535       34.1360904747        7.9790886503
  O        37.9815059215       33.1376060493        5.5726591353
  O        39.2177910776       31.5761172263        6.6662662195
  O        20.3079625627        1.0389095222        6.5014964057
  O        38.0257525404       33.1880458783       10.4143531044
  O        39.2191616011       31.5842751692        9.3261201899
  O        40.6520454856       33.7686872811       10.0603402530
  O        18.2560205069        1.3745609414        7.9967569380
  O        44.6223231361       35.1003293259        6.7586498215
  O        24.2052870474        0.0000262747        9.3209938498
  O        22.7533949953        2.0585325910       10.5843128799
  O        21.6244713900        3.5967161108        9.3427462161
  O        27.5428047647       18.6917406522        5.4304735471
  O        26.7680082589       16.9358963665        6.6544111402
  O        30.6673015351       19.4062250202        8.0671220424
  O        33.5779212128       16.2829687541        5.6581647663
  O        34.2666392054       18.1712457560        6.7359817988
  O        29.5759847694       17.0684222258        6.5766605018
  O        33.6224289896       16.3286288314       10.4039647150
  O        34.3044825211       18.2495469572        9.4031720737
  O        31.6585625317       18.3116656701       10.1480136285
  O        30.3229354985       15.1534551315        8.0849303965
  O        28.5503471460       21.0349903756        6.9079681792
  O        28.5126648848       20.9608477028        9.4067254245
  O        27.4618164815       18.6771843717       10.6615177653
  O        26.6962593308       16.9297388129        9.4117232064
  O        13.1496059885       18.6927900762       10.5880565825
  O        13.9194617728       16.9158699788        9.4048159189
  O        50.5956871442       19.3502674577        8.0207363406
  O        47.6853008451       16.3263824407       10.4166661509
  O        46.9535178990       18.1758100365        9.3233739775
  O        11.0693442671       17.0156698979        9.4900596328
  O        47.6765245408       16.3352221018        5.6527417151
  O        46.9311286462       18.2354433789        6.6664641440
  O        49.5689571948       18.3178648622        5.9822759238
  O        10.3183489089       15.1003446494        7.9969657597
  O        52.6706573967       21.0279833124        9.2418839485
  O        12.1468562952       20.8912456820        6.6730362339
  O        13.1094597770       18.6134302825        5.3251652434
  O        13.9572922612       16.9866285418        6.6657410639
  O        29.9925424044       14.4430562627       10.7305412591
  O        28.0893630289       14.6541129469        9.4941297839
  O        32.1346085637       16.8685373612        8.0632789401
  O        30.9665817018       20.9560756639       10.4020025700
  O        32.9483811798       20.5989295316        9.3374916362
  O        29.5701313107       17.0766907790        9.5783956149
  O        30.8442445269       20.8820686671        5.6621618106
  O        32.8685034569       20.5772700433        6.6672714491
  O        31.6076328208       18.2541246048        5.9134434555
  O        28.2863305090       18.6792954247        8.0742752116
  O        32.4952585971       14.2115021724        9.3286274555
  O        32.4074141215       14.2116345230        6.8278123222
  O        29.9155388706       14.4428262308        5.4902722060
  O        28.0378539914       14.5922583578        6.7558487936
  O        17.8889598298        1.9664017556       10.6630090178
  O        18.9561548917        3.5270611109        9.4080210751
  O        39.1686887083       34.1384844888        7.9970882557
  O        43.2804253988       33.0589728392       10.3315778218
  O        42.0349864554       31.5063403099        9.2414885765
  O        20.3171947951        1.0358024918        9.4810731984
  O        43.2762126377       33.1823197081        5.5749132043
  O        42.0053707158       31.5838249449        6.5830807382
  O        40.5789991342       33.7743892402        5.9357193404
  O        22.3666389822        1.3841265646        7.9978172755
  O        36.6724228411       35.0994769803        9.2335795005
  O        16.4449539016        0.0637796014        6.6680800672
  O        17.9362555860        2.0433920061        5.3262879348
  O        18.9190932019        3.5930705245        6.6660394317
  O        29.5303487475       19.3383847604        3.8275495561
  O        29.8634834620       19.0503678206       11.9770416954
  O        31.4319751861       16.1794961986        4.0876921719
  O        31.4326889366       16.3320606669       11.9800526011
  O        32.6128754608       16.2040845382        1.1603677383
  O        29.7782793490       17.1489510345        0.9305475702
  O        30.0896278363       15.6197704951       14.1706942544
  O        31.4755449076       17.8773947367       14.5694992612
  O        31.0852921963       19.7096448039        1.2543552825
  O        28.8465478514       18.4678672370       14.2464509876
  O        39.4567591169       35.2438584443        4.0018761339
  O        19.1409050393        0.0044610529       11.9909831611
  O        41.9701171854       35.1727359301        4.0873834017
  O        21.6917393288       -0.0693376120       11.8956941241
  O        51.3649857662       18.6141896507        4.0056035453
  O        10.7512689946       18.7473958569       11.9049402190
  O        50.0798488819       16.4129508354        4.0915034571
  O         9.5245052465       16.4829437106       11.9913412086
 Zr         9.2934515687       16.0533178656        6.1822393616
 Zr        49.8332718861       16.0071105756        9.7466434135
 Zr        22.0709932708        0.0256437763        6.1904824337
 Zr        42.4587246765       35.1497723166        9.7998874330
 Zr        29.6124351382       19.1168832872        6.3469882947
 Zr        29.5852937823       19.1846837242        9.8713271547
 Zr        11.0356442792       19.0521276327        9.8272117021
 Zr        11.0412740843       19.1549868339        6.2521474929
 Zr        31.3712033610       16.0987337752        9.8549385252
 Zr        31.3909995257       15.9977031128        6.2904299902
 Zr        18.5986355929       -0.0066381755        9.7641962575
 Zr        18.5046139721       -0.0123251168        6.2131716584
 Zr        12.2983398663       16.3238797595        7.9902270135
 Zr        48.6126786876       18.8324744181        8.0104814747
 Zr        20.3125152119        2.4681947962        7.9910342333
 Zr        40.6383955592       32.6817102913        7.9786750759
 Zr        28.3443511848       16.3355031805        8.0860016192
 Zr        32.6572550113       18.8503781517        8.0590948610
  H        28.7379566226       17.0881400496        3.3845334943
  H        29.2290104038       18.3513076485        3.6053926954
  H        33.2277343142       15.4493068541        1.1364779413
  H        30.5877493326       19.5672262424        2.1042209316
