     571
 i =      188, E =     -4761.6195254801
  C        11.8586893526       14.0534610832        5.7416012456
  C        12.4562187341       12.8905178155        5.0233007720
  C        11.7044346355       12.1714264467        4.0818395860
  C        12.2808428001       11.1092646132        3.3894480650
  C        13.6214934117       10.7396664683        3.6170154939
  C        14.3548142276       11.4435106660        4.5901610316
  C        13.7819003048       12.5084464418        5.2817128280
  C        14.2610742225        9.6490284220        2.8436219635
  C        14.2562934601        9.6568896877        1.4219244461
  C        13.7430522843       10.7589937807        0.6680396292
  C        49.1268654471       21.2332329770        5.8797328395
  C        48.5501205037       22.4012180172        5.1526128213
  C        49.3001902507       23.0685826703        4.1716896535
  C        48.7332756713       24.1077418932        3.4384871101
  C        47.4027100049       24.5092873077        3.6670720505
  C        46.6716673661       23.8603006545        4.6804314954
  C        47.2341112163       22.8153744041        5.4097562861
  C        46.7724463898       25.5869971111        2.8698240917
  C        46.7613288939       25.5573718724        1.4480650570
  C        47.2611687045       24.4422229800        0.7045883043
  C        14.8604179481        8.5706526083        0.7086692773
  C        14.8918728163        8.5971038584        3.5202820036
  C        49.1132435729       21.2033862748       10.1453747493
  C        48.5278421697       22.3647291283       10.8726582876
  C        49.2670784342       23.0255136209       11.8654973495
  C        48.6907647810       24.0600968780       12.5969476447
  C        47.3603204970       24.4567619328       12.3587613424
  C        46.6398588403       23.8117800728       11.3353324885
  C        47.2134212007       22.7758417051       10.6036007660
  C        46.7219030194       25.5317931912       13.1497400661
  C        46.7334978271       25.5281270669       14.5714442479
  C        47.2488805039       24.4288883568       15.3278267232
  C        40.6345444442       17.1345766231       15.3263262173
  C        40.6563312254       17.1740435875       12.5174591587
  C        11.8829942571       14.0866037360       10.2855528315
  C        12.4724037123       12.9108458960       10.9898252170
  C        11.7147964495       12.1774326026       11.9156835998
  C        12.2814175469       11.0949745463       12.5840732590
  C        13.6203511163       10.7215085706       12.3525217412
  C        14.3584376448       11.4373362072       11.3920055676
  C        13.7929881041       12.5185052751       10.7193215692
  C        14.2539653047        9.6247288668       13.1228887970
  C        14.2526369811        9.6446551239       14.5447218927
  C        13.7424773807       10.7534746627       15.2917868983
  C        22.5123617915        3.2444283517        5.7531732812
  C        23.2277550168        4.3489237053        5.0535509580
  C        24.2237524502        4.0674274301        4.1067060814
  C        24.8519817472        5.1060115045        3.4244047412
  C        24.4999787312        6.4482859412        3.6688613552
  C        23.5321161304        6.7212872924        4.6526562973
  C        22.8991776852        5.6845114476        5.3333589686
  C        25.1069589435        7.5538832783        2.8929575533
  C        25.0777340514        7.5475216336        1.4714348457
  C        24.3729487174        6.5498335754        0.7256320282
  C        38.3041661148       31.9298696273        5.8488940067
  C        37.5780178259       30.8387939166        5.1382837954
  C        36.6170292450       31.1397943591        4.1612946840
  C        36.0037647967       30.1173374463        3.4427761325
  C        36.3373243624       28.7696460066        3.6803320278
  C        37.2691386017       28.4758983243        4.6933400334
  C        37.8864068472       29.4970747285        5.4105885945
  C        35.7373623616       27.6766603567        2.8836605757
  C        35.7669819681       27.6926059957        1.4625283834
  C        36.4729483688       28.6951443308        0.7255119833
  C        25.7017104661        8.6166890884        0.7512454240
  C        25.7067205337        8.6273449478        3.5635288419
  C        38.3295039650       31.9627859022       10.1560346986
  C        37.6090861103       30.8890978246       10.8983640719
  C        36.6809535910       31.1971562419       11.9045638064
  C        36.0723572438       30.1779539636       12.6343006288
  C        36.3779970161       28.8259752359       12.3805568059
  C        37.2838631587       28.5277470512       11.3444666569
  C        37.8946857561       29.5434885103       10.6162969522
  C        35.7713396628       27.7262909817       13.1644114568
  C        35.7844243341       27.7181098658       14.5861410007
  C        36.4811294373       28.7073826970       15.3488445651
  C        46.1355175922       26.6207904121       15.2815653055
  C        46.0880472322       26.5801941285       12.4736704423
  C        22.4608274768        3.2560117879       10.2578376060
  C        23.1547850563        4.3646405687       10.9806321792
  C        24.1567105001        4.0786020835       11.9216715798
  C        24.7845868617        5.1087603081       12.6176555264
  C        24.4308800291        6.4547118754       12.3951848112
  C        23.4520930566        6.7339823671       11.4226016931
  C        22.8194926896        5.7040840494       10.7271360188
  C        25.0619772230        7.5526889935       13.1693599917
  C        25.0550006831        7.5463391900       14.5921859141
  C        24.3603281553        6.5503277744       15.3487429305
  C        26.6233490629       17.8608387584        5.7882250858
  C        25.3154999178       17.9021475588        5.0624396551
  C        25.0611373533       18.8899322364        4.0979046051
  C        23.8485169290       18.9083734521        3.4108568381
  C        22.8537718961       17.9418341994        3.6649812774
  C        23.1054666072       16.9763156331        4.6581137594
  C        24.3197539241       16.9526892076        5.3432364657
  C        21.5802928111       17.9252950369        2.9004093261
  C        21.5794277787       17.8979087658        1.4778155082
  C        22.7841763977       17.7692473984        0.7167269381
  C        34.4387729513       17.1920249584        5.9219855108
  C        35.7331285849       17.1349142335        5.1829368780
  C        35.9269025200       16.1779494339        4.1744545656
  C        37.1069551164       16.1644102358        3.4362858233
  C        38.1240686956       17.1058301072        3.6870606228
  C        37.9332394295       18.0410061940        4.7224858207
  C        36.7507715970       18.0607490419        5.4578736111
  C        39.3771833047       17.1167987018        2.8995677574
  C        39.3741820502       17.1394593139        1.4778700029
  C        38.1681932618       17.2647739633        0.7188955367
  C        20.3326418743       17.9155263617        0.7694029639
  C        20.3551893830       17.9316891694        3.5825964973
  C        34.4797614692       17.2455067348       10.1803284932
  C        35.7819692384       17.1741773425       10.9041692632
  C        35.9947083758       16.1915648716       11.8825776462
  C        37.1796228667       16.1745126707       12.6125713432
  C        38.1792763817       17.1396051972       12.3832264817
  C        37.9727499518       18.0974901839       11.3731725056
  C        36.7856857529       18.1195880106       10.6460029148
  C        39.4246998662       17.1580906781       13.1804339231
  C        39.3987827861       17.1615775276       14.6013990867
  C        38.1799510908       17.2732100204       15.3420725458
  C        35.1536354462       26.6391534675       15.2898881793
  C        35.1791025296       26.6571376931       12.4810082629
  C        26.5709919705       17.8268773346       10.3244937381
  C        25.2553707195       17.8699119463       11.0300589707
  C        24.9891770425       18.8731014651       11.9742543742
  C        23.7721296652       18.8939584343       12.6498441808
  C        22.7913596400       17.9122242246       12.4035830181
  C        23.0514234924       16.9346714005       11.4262163047
  C        24.2696563992       16.9111773757       10.7497956350
  C        21.5280764308       17.8904305656       13.1772110833
  C        21.5526303774       17.8785052867       14.5986676937
  C        22.7710943871       17.7598827117       15.3402171380
  C        14.0464780804       17.8278611620       10.2896646846
  C        15.3504040625       17.8820499073       11.0162950926
  C        15.6077607213       18.8820523933       11.9670960588
  C        16.8165151500       18.8994855046       12.6606247186
  C        17.8024707888       17.9198393948       12.4254278030
  C        17.5498283338       16.9440847995       11.4426406533
  C        16.3405133671       16.9219778932       10.7508753810
  C        19.0718679072       17.8998274133       13.1940209888
  C        19.0713680668       17.8945968315       14.6165299111
  C        17.8647920152       17.7951724788       15.3783895774
  C        46.8066319846       17.2205134487       10.1603015804
  C        45.5195224130       17.1644575930       10.9100085479
  C        45.3143347514       16.1911315385       11.8999197090
  C        44.1349301104       16.1794459540       12.6395510554
  C        43.1317050011       17.1412213633       12.4105437826
  C        43.3346261962       18.0947376185       11.3947654274
  C        44.5146413811       18.1104107274       10.6562657478
  C        41.8789181276       17.1557382339       13.1984217119
  C        41.8825106003       17.1507518771       14.6200564433
  C        43.0903538635       17.2427647938       15.3806326936
  C        20.3184877798       17.9045489818       15.3242922375
  C        20.2957569718       17.8811713948       12.5111068274
  C        46.7855050337       17.2296044454        5.8914061819
  C        45.4810440798       17.1202452602        5.1802103339
  C        45.2653326860       16.1247791344        4.2153435412
  C        44.0769373863       16.0973740409        3.4901128534
  C        43.0755726481       17.0619176216        3.7139958229
  C        43.2806414251       18.0251419250        4.7192914441
  C        44.4704343744       18.0595090279        5.4389997985
  C        41.8309995885       17.0874251192        2.9156687120
  C        41.8582345410       17.1137831124        1.4952224973
  C        43.0787983419       17.2228758264        0.7571262642
  C        46.1533067499       26.6372517727        0.7263233676
  C        46.1626411910       26.6561888271        3.5359544085
  C        14.0461076887       17.8316528671        5.7088350685
  C        15.3677489171       17.9048000591        5.0188937148
  C        15.6423366937       18.9177385274        4.0879294547
  C        16.8719274124       18.9529460361        3.4338576479
  C        17.8549405203       17.9744399622        3.6848841949
  C        17.5873300472       16.9908255806        4.6543360214
  C        16.3597158429       16.9549241477        5.3117154401
  C        19.1224554544       17.9464835029        2.9159724804
  C        19.0978074014       17.9172701123        1.4945767510
  C        17.8777658473       17.8054783111        0.7545678949
  C        28.8100054033       14.0920239206       10.3907564869
  C        28.1965748657       12.9185501460       11.0781078539
  C        28.9173582788       12.1837927057       12.0312844581
  C        28.3188110292       11.1079608251       12.6822044480
  C        26.9852747354       10.7442065664       12.4053158678
  C        26.2866794817       11.4598891162       11.4163551797
  C        26.8831285148       12.5352187549       10.7629089030
  C        26.3159026456        9.6646213916       13.1663305792
  C        26.3044916845        9.6902687606       14.5874941741
  C        26.8109476321       10.8015603104       15.3334318788
  C        32.1790208149       21.2428411409       10.1432384645
  C        32.7751521827       22.4096253073       10.8607475597
  C        32.0258018112       23.0912420170       11.8319408104
  C        32.5975684713       24.1292636354       12.5613869358
  C        33.9340966634       24.5134517726       12.3395519384
  C        34.6659756107       23.8508759241       11.3363803292
  C        34.0965323139       22.8071959907       10.6092008074
  C        34.5643823456       25.5874429428       13.1404302910
  C        34.5579089913       25.5578372025       14.5618618708
  C        34.0457027944       24.4441346464       15.2997400555
  C        25.6941997802        8.6128153173       15.3064035528
  C        25.6780467983        8.6143889619       12.4931369085
  C        32.1059853845       21.2304741145        5.8860550680
  C        32.6997177975       22.3798654430        5.1404838541
  C        31.9632086015       23.0513064113        4.1521073911
  C        32.5476983558       24.0764952317        3.4120877164
  C        33.8822167033       24.4627924152        3.6448372035
  C        34.6017487931       23.8061068284        4.6614521617
  C        34.0225139879       22.7737027979        5.3948122401
  C        34.5236715580       25.5430157008        2.8604853134
  C        34.5357054774       25.5355716249        1.4388274267
  C        34.0338282394       24.4341555606        0.6765261522
  C        40.6217371247       17.1193261188        0.7706096249
  C        40.6000359691       17.1068020405        3.5797503926
  C        28.7451194977       14.0671745842        5.8160097814
  C        28.1387408832       12.9209463027        5.0762878072
  C        28.8750604840       12.2235783307        4.1060625290
  C        28.2940668432       11.1668466308        3.4088114573
  C        26.9618381960       10.7799714653        3.6576138864
  C        26.2428142383       11.4648803147        4.6552501213
  C        26.8212560729       12.5228003598        5.3533530999
  C        26.3196292787        9.6891603879        2.8857582686
  C        26.3087631723        9.7024944869        1.4639771171
  C        26.8116588537       10.8084391946        0.7093391503
  C        18.1353931902        3.1811607268       10.3171476883
  C        17.4061979081        4.2783711975       11.0157565855
  C        16.3905452929        4.0000484658       11.9433692441
  C        15.7428709209        5.0400633702       12.6068354510
  C        16.0947702310        6.3837881786       12.3671021141
  C        17.0841633956        6.6532464377       11.4033247532
  C        17.7332318071        5.6158851510       10.7382875609
  C        15.4704639467        7.4914774412       13.1301566555
  C        15.4857506259        7.4907389150       14.5518650259
  C        16.1873825403        6.4971687500       15.3050249143
  C        42.9461030947       31.8595777837       10.0728181328
  C        43.6465392317       30.7719447513       10.8167389359
  C        44.5917597887       31.0932843454       11.8031119089
  C        45.1974969829       30.0877329842       12.5507512494
  C        44.8712825538       28.7346366206       12.3357338060
  C        43.9457414862       28.4202944239       11.3222504316
  C        43.3369027431       29.4254304366       10.5742349377
  C        45.4887998500       27.6553135720       13.1389248280
  C        45.4929119374       27.6809555267       14.5606158514
  C        44.8058574668       28.6890195197       15.3072474431
  C        14.8566047915        8.5631109457       15.2642447773
  C        14.8752372968        8.5632695536       12.4515553197
  C        42.9466113459       31.9616797202        5.8090244609
  C        43.6919137767       30.8855937976        5.0956006451
  C        44.6562192641       31.1915229905        4.1230139132
  C        45.2777464086       30.1719373661        3.4052896244
  C        44.9543267773       28.8215752140        3.6432037563
  C        44.0212512726       28.5239148322        4.6543766103
  C        43.3930002433       29.5406615237        5.3665781715
  C        45.5632882103       27.7241757842        2.8579184219
  C        45.5334209168       27.7174544415        1.4366212347
  C        44.8271386880       28.7076946228        0.6836409757
  C        35.1436274159       26.6269665395        0.7346292330
  C        35.1355265039       26.6000315370        3.5444936621
  C        18.1485613910        3.2470890176        5.7066011929
  C        17.4300355607        4.3438731770        4.9973210425
  C        16.4148623214        4.0526405150        4.0736850312
  C        15.7665886001        5.0832966218        3.3983245148
  C        16.1212663959        6.4285271098        3.6210960907
  C        17.1126399749        6.7118635239        4.5783727804
  C        17.7602966034        5.6829345251        5.2581157959
  C        15.4907681158        7.5242228557        2.8486704559
  C        15.4966373366        7.5075470300        1.4275420968
  C        16.1935740408        6.5059675882        0.6808395463
  H        10.6722266972       12.4654063095        3.9050092232
  H        11.6944603531       10.5505961793        2.6631286172
  H        15.3919485268       11.1691373542        4.7716515715
  H        14.3514759486       13.0719288801        6.0168726855
  H        13.3758472285       11.6310157202        1.2013893214
  H        50.3229341997       22.7486020001        3.9870320811
  H        49.3198041734       24.6231117932        2.6810110170
  H        45.6421425747       24.1610029535        4.8635161783
  H        46.6630729327       22.2899664292        6.1717118818
  H        47.6297322790       23.5758677380        1.2462977380
  H        14.8722547234        8.5883985624        4.6085894724
  H        50.2871696360       22.7027449111       12.0603067212
  H        49.2691980068       24.5756409162       13.3603618234
  H        45.6104348713       24.1089778344       11.1463270856
  H        46.6525962726       22.2535897982        9.8321032905
  H        47.6076484803       23.5517645665       14.7969244471
  H        40.6638179576       17.1442569957       11.4295987500
  H        48.6870418374       14.0948070358        7.7999823802
  H        10.6812220920       12.4662727307       12.0928531078
  H        11.6895458595       10.5243697943       13.2965352233
  H        15.3939960916       11.1597372296       11.2063361702
  H        14.3654132554       13.0881171534        9.9910398525
  H        13.3755833741       11.6220527093       14.7531405818
  H        47.9301866572       14.2178523800        9.7109119655
  H        47.7800670085       14.3731742787        6.4950578125
  H        49.0842299744       18.5526109557       10.8675411969
  H        10.4160561267       14.1342849745        7.9987640080
  H        24.4832628586        3.0284799271        3.9159193901
  H        25.6245232140        4.8875664818        2.6903154624
  H        23.2530531691        7.7546809761        4.8476742614
  H        22.1297738201        5.8859838418        6.0746867030
  H        23.8110441574        5.7937356579        1.2661825285
  H        36.3757081667       32.1822492151        3.9674137124
  H        35.2579397626       30.3532841217        2.6869021610
  H        37.5341794891       27.4377686434        4.8827357249
  H        38.6317329591       29.2794530769        6.1718710021
  H        37.0393399668       29.4437690030        1.2717748973
  H        25.7426409521        8.6098025131        4.6513146978
  H        36.4576148407       32.2412224531       12.1120850916
  H        35.3472030888       30.4216967739       13.4075869831
  H        37.5314067912       27.4877180529       11.1425103014
  H        38.6168604576       29.3191019289        9.8351248716
  H        37.0549276063       29.4650574718       14.8229599594
  H        46.1095709131       26.5876129592       11.3856379655
  H        44.6684698525       35.1162629378        7.8139197269
  H        24.4342385183        3.0403790005       12.0892165179
  H        25.5652247977        4.8799260455       13.3400279065
  H        23.1674700180        7.7685225528       11.2417037921
  H        22.0479910706        5.9170404010        9.9907800229
  H        23.7881398069        5.7951815857       14.8176181559
  H        44.9543881977       34.3908429861        9.6954052417
  H        44.9023154868       34.2070453965        6.4905398219
  H        40.6665975576       33.2095450410       10.8533811848
  H        23.1505271064        1.9580437979        8.0052942857
  H        25.8279080385       19.6362998112        3.9023878274
  H        23.6562335389       19.6813647114        2.6697796639
  H        22.3500741329       16.2206081125        4.8639299454
  H        24.5238252052       16.1934627353        6.0947332198
  H        23.7244766243       17.6479482561        1.2466147709
  H        35.1348500645       15.4594907579        3.9762324949
  H        37.2560629454       15.4152294138        2.6617995213
  H        38.7115498062       18.7750222236        4.9207462252
  H        36.5862158982       18.7976890396        6.2406250175
  H        37.2277466072       17.3835845849        1.2492039512
  H        20.3621483034       17.9766788737        4.6702710227
  H        35.2122196640       15.4590959965       12.0668300267
  H        37.3445656367       15.4094978518       13.3681607502
  H        38.7392666823       18.8482557270       11.1924260864
  H        36.6033795326       18.8760771559        9.8863557307
  H        37.2485632634       17.3972273097       14.7972176674
  H        35.1498387252       26.6842356385       11.3933964801
  H        28.5056932295       21.0817393593        7.9854717969
  H        25.7487928852       19.6294095405       12.1591492109
  H        23.5650804407       19.6758896826       13.3773339862
  H        22.3023135569       16.1702560881       11.2300252982
  H        24.4867798876       16.1443921329       10.0099626613
  H        23.7013805066       17.6312076677       14.7950005872
  H        29.0068512218       21.7204718040        9.7582762031
  H        29.1573496303       21.7468151240        6.6296280214
  H        32.0918861084       18.5560677149       10.9853767260
  H        27.3982844260       19.0691584719        8.0820856245
  H        14.8500928847       19.6413881387       12.1473858218
  H        17.0121161191       19.6812779785       13.3914298805
  H        18.3004146898       16.1797706542       11.2518129128
  H        16.1341706328       16.1552436069       10.0079027303
  H        16.9221066082       17.6788018543       14.8516006558
  H        46.0958737293       15.4572791734       12.0822400023
  H        43.9751330799       15.4166106585       13.3983574680
  H        42.5677570692       18.8452062693       11.2145067238
  H        44.6884534378       18.8604922479        9.8883419057
  H        44.0325374049       17.3609889483       14.8530950023
  H        20.2892295627       17.9135851713       11.4230450505
  H        46.0450365977       15.3884133490        4.0344966012
  H        43.9119726358       15.3262942835        2.7407140758
  H        42.5112208588       18.7732019389        4.8985099288
  H        44.6516493303       18.8229423305        6.1915540434
  H        44.0121933042       17.3246983000        1.3031097376
  H        46.1996449767       26.6827788712        4.6233934549
  H        52.7411814457       21.0626190232        8.1947150186
  H        14.8822553851       19.6712127622        3.8933786362
  H        17.0835290070       19.7412757808        2.7146382302
  H        18.3375202890       16.2289977447        4.8562120686
  H        16.1380141919       16.1822873517        6.0438827602
  H        16.9447202544       17.6968719889        1.2992969200
  H        52.3225577358       21.6732678983        6.2942038252
  H        52.0131915302       21.7019813436        9.4956311056
  H        49.0673231598       18.6075067695        5.2042069072
  H        13.2477348457       19.0160698676        7.9774703970
  H        29.9443121237       12.4698751696       12.2477720635
  H        28.8799165472       10.5368735767       13.4187343789
  H        25.2562944364       11.1889924879       11.1953195456
  H        26.3415545772       13.1088637078       10.0147651275
  H        27.1752156668       11.6700750935       14.7933126790
  H        30.9988795289       22.7810427428       12.0096451055
  H        32.0117501622       24.6577143386       13.3103778560
  H        35.7003394070       24.1388906142       11.1599486583
  H        34.6668093701       22.2691530317        9.8554094788
  H        33.6845784618       23.5786402657       14.7516799561
  H        25.7076941449        8.5950278017       11.4051193163
  H        30.9324383177       22.7548335160        3.9724095900
  H        31.9697348605       24.5982598546        2.6523448485
  H        35.6345888033       24.0939081976        4.8467871718
  H        34.5831502289       22.2438699897        6.1614755702
  H        33.6636111945       23.5605762412        1.2053755123
  H        40.5923514038       17.0603962645        4.6670584977
  H        32.5154908996       14.1467410323        8.2581435817
  H        29.9048901083       12.5176930376        3.9158935483
  H        28.8732553107       10.6231796330        2.6655531663
  H        25.2118704957       11.1791402580        4.8538559174
  H        26.2628034935       13.0675189720        6.1109443426
  H        27.1758401864       11.6821220302        1.2417686820
  H        33.2978380622       14.1985579963        6.4417372487
  H        33.4099045148       14.4015154492        9.6066534555
  H        32.2095212044       18.5807066859        5.2485693399
  H        30.2263236287       14.1924447574        8.0667908161
  H        16.1184123778        2.9635706125       12.1297737146
  H        14.9534116843        4.8207599994       13.3225048223
  H        17.3666446724        7.6861034809       11.2101806944
  H        18.5152543650        5.8185284453       10.0104232497
  H        16.7540968494        5.7399435469       14.7715329729
  H        44.8279609653       32.1403719723       11.9774064580
  H        45.9372549666       30.3415259342       13.3067919132
  H        43.6833494028       27.3781877610       11.1519002941
  H        42.6006048505       29.1900581973        9.8092782647
  H        44.2306193546       29.4368779693       14.7689468808
  H        14.8515285342        8.5465743850       11.3633362067
  H        44.8995456938       32.2342179421        3.9313417049
  H        46.0244596132       30.4132280574        2.6518771341
  H        43.7647552982       27.4841402973        4.8463151835
  H        42.6469223915       29.3178285124        6.1254235805
  H        44.2687269679       29.4706642495        1.2182056445
  H        35.0954609056       26.6113189909        4.6320623824
  H        36.6052211499       35.1341127059        8.1806625913
  H        16.1437400338        3.0130796325        3.9039491239
  H        14.9742671701        4.8565079463        2.6882207132
  H        17.3961902643        7.7473186464        4.7552731896
  H        18.5432114874        5.8933986738        5.9828324489
  H        16.7651289825        5.7558188231        1.2192766524
  H        36.2785309581       34.4827439048        6.2728948325
  H        36.3810954933       34.2091494494        9.4995421780
  H        40.5811381001       33.2031880362        5.1531886177
  H        17.4708556862        1.9477833049        7.9741359508
  H        29.1322859452       19.3966942072       12.5378739478
  H        29.8480386417       19.9318465015        3.6569958294
  H        30.7540719447       15.5351649326        3.7244674892
  H        31.2940331180       15.5599555610       12.4900461768
  H        28.0060783849       18.1728606765       14.6578471999
  H        29.3507243639       15.0769808553       14.3370774170
  H        31.6590577879       19.9385726416        1.5435872217
  H        29.1578903200       16.5617109788        1.3300516842
  H        32.2726369781       18.2520260079       14.6748000190
  H        18.8538401216        0.8692523368       12.3352430050
  H        40.5280402393       35.2290871991        3.9519795450
  H        42.3250862856       34.4201050873        3.5897768633
  H        22.0877863207        0.6920149074       12.3517965863
  H        11.5970194508       18.7127936773       12.3824471118
  H        52.2649652941       18.4309161905        3.6773780605
  H        49.2547675954       16.4771028551        3.5846533295
  H        10.1495395340       15.7981890535       12.2931184518
  H        50.8499761963       17.6924859465        3.9542764597
  H        10.0458768055       17.3944226808       12.0519659063
  H        20.2152452075        0.0024499188       12.0419179118
  H        39.1837529261       36.1245744037        3.6865809918
 Ni        30.6963652609       17.8615038741        2.9944626221
 Ni        31.1578767340       15.9814131326       -0.0822795289
 Ni        30.0555554266       18.6760827062        0.0020463982
 Ni        30.1397927146       17.4128332840       13.2413084844
  O        10.6499382911       14.3651063864        5.4857703177
  O        12.6131707208       14.6574938675        6.5838793377
  O        49.1481358664       16.8459500540        7.9897416615
  O        50.3502767475       20.9359308926        5.6480510096
  O        48.3485615114       20.5933370732        6.6658886894
  O        11.0517339108       17.0539118512        6.5006584200
  O        50.3210469847       20.8816772101       10.4068500951
  O        48.3467350122       20.5868298338        9.3271600125
  O        49.5438047526       18.2484635014       10.0682463858
  O        12.3591377300       18.6246164656        7.9997077512
  O        48.6933086429       14.1484926159        6.7513133090
  O         8.2099009915       14.2103682083        9.3225933938
  O        10.7353857952       14.5067842380       10.6643373930
  O        12.5717961673       14.5827735422        9.3284648595
  O        22.8445055932        2.0430247840        5.4872328200
  O        21.6056855382        3.5923798209        6.5895251910
  O        42.0584785219       34.1375969756        7.9789957131
  O        37.9818224920       33.1375585831        5.5724695637
  O        39.2187294460       31.5764376180        6.6671867822
  O        20.3085152976        1.0397590642        6.5022096063
  O        38.0248084003       33.1861021508       10.4151158147
  O        39.2194023166       31.5839800865        9.3261907705
  O        40.6523343610       33.7694935872       10.0602667004
  O        18.2553834925        1.3764020831        7.9967682287
  O        44.6222138666       35.1005723283        6.7587757636
  O        24.2054205387        0.0000571296        9.3208063830
  O        22.7530098029        2.0578159985       10.5838250385
  O        21.6244925832        3.5960842182        9.3426809772
  O        27.4954730115       18.7518119479        5.5020241485
  O        26.7673728998       16.9302018234        6.6572951583
  O        30.6666225369       19.4075969172        8.0692031881
  O        33.5807737056       16.2783612413        5.6649349217
  O        34.2738149081       18.1687527670        6.7344422148
  O        29.5750180209       17.0705215349        6.5776320542
  O        33.6229101520       16.3289691373       10.4090510809
  O        34.3063809381       18.2480042677        9.4059380731
  O        31.6560455064       18.3133149865       10.1520470874
  O        30.3246419712       15.1586297538        8.0827372670
  O        28.5535777671       21.0344545780        6.9074176735
  O        28.5134965989       20.9576998676        9.4112171412
  O        27.4567092820       18.6784719731       10.6603780893
  O        26.6945527935       16.9287034799        9.4130316423
  O        13.1491305686       18.6927482203       10.5876400182
  O        13.9193972893       16.9161353553        9.4049455765
  O        50.5963195355       19.3503100901        8.0204490634
  O        47.6835153932       16.3270708669       10.4172558499
  O        46.9522840218       18.1760517059        9.3242574540
  O        11.0698986217       17.0154819903        9.4896881313
  O        47.6767904697       16.3353785207        5.6534607631
  O        46.9275760630       18.2356543599        6.6648207594
  O        49.5688156194       18.3177508338        5.9823126757
  O        10.3186479026       15.1001330970        7.9970896966
  O        52.6708075385       21.0278762077        9.2418453536
  O        12.1468441423       20.8911681209        6.6732169483
  O        13.1086948850       18.6135241630        5.3255029432
  O        13.9572806269       16.9869864130        6.6654729660
  O        29.9928749789       14.4429165096       10.7308524968
  O        28.0894267774       14.6540936451        9.4936430342
  O        32.1387098922       16.8567474612        8.0791775161
  O        30.9661787587       20.9550260978       10.4080868898
  O        32.9476072782       20.6025732040        9.3394338924
  O        29.5686295963       17.0752428576        9.5766436293
  O        30.8743262795       20.9507336845        5.6638385287
  O        32.8788690156       20.5849762815        6.6663336142
  O        31.6826477217       18.2530290837        5.9939882393
  O        28.2863679370       18.6765408576        8.0795479116
  O        32.4935777648       14.2131560399        9.3309010994
  O        32.4043661689       14.2138418912        6.8237488177
  O        29.9208786163       14.4425015471        5.4852655278
  O        28.0426165557       14.5862341468        6.7505544137
  O        17.8892483512        1.9667164862       10.6628085603
  O        18.9562663396        3.5271736828        9.4079895236
  O        39.1686721318       34.1389304704        7.9972144806
  O        43.2802663166       33.0589930271       10.3317324736
  O        42.0345073871       31.5064588793        9.2417058433
  O        20.3178866227        1.0369469287        9.4800267467
  O        43.2760667577       33.1826499470        5.5748883789
  O        42.0053039817       31.5841213559        6.5829749767
  O        40.5790362115       33.7751418779        5.9358158271
  O        22.3674415985        1.3847360727        7.9979136261
  O        36.6727594344       35.0998378891        9.2332890868
  O        16.4456334817        0.0642777683        6.6683234466
  O        17.9365397794        2.0433757408        5.3263979764
  O        18.9190539786        3.5931258641        6.6659290619
  O        29.7740910146       19.0687753843        4.1038036727
  O        29.8254457652       18.9650573180       12.0022961569
  O        31.1794898427       16.3376245090        4.0796945527
  O        31.3789787016       16.4033449988       12.0010686882
  O        29.9891004688       17.0616199326        1.2487067678
  O        30.1100900401       15.6790697336       14.3111925581
  O        31.4261241826       17.8026532163       14.8270759040
  O        30.8452710542       19.4149415780        1.6005349734
  O        28.8914642395       18.5322910061       14.4897836215
  O        39.4568412809       35.2438559936        4.0019639097
  O        19.1417042107        0.0047679030       11.9905065403
  O        41.9696678198       35.1729704023        4.0871824970
  O        21.6912671056       -0.0692617940       11.8959765644
  O        51.3651451895       18.6142662393        4.0054156645
  O        10.7512316345       18.7471776942       11.9048896764
  O        50.0792986558       16.4128287236        4.0917407123
  O         9.5239706479       16.4831625424       11.9912665809
 Zr         9.2970159980       16.0526560729        6.1824623905
 Zr        49.8363533605       16.0065754531        9.7463403981
 Zr        22.0736253524        0.0304172563        6.1888382920
 Zr        42.4612707170       35.1539550678        9.8010912659
 Zr        29.5943800132       19.1043625513        6.3122201983
 Zr        29.5796635978       19.1723499552        9.8802514028
 Zr        11.0382889358       19.0518056542        9.8276810493
 Zr        11.0441529636       19.1547414313        6.2510204235
 Zr        31.3556323290       16.1006691523        9.8869875573
 Zr        31.3987534185       16.0152426520        6.2938161981
 Zr        18.6015511816       -0.0004977856        9.7632608491
 Zr        18.5068050074       -0.0070614065        6.2139088867
 Zr        12.3022677457       16.3235622675        7.9902579155
 Zr        48.6168007191       18.8330755879        8.0101580838
 Zr        20.3155395961        2.4741979396        7.9905015747
 Zr        40.6443105572       32.6878824585        7.9783379417
 Zr        28.3452254436       16.3419202247        8.0844971924
 Zr        32.6318932299       18.8347594624        8.0667726992
  H        31.3379260743       14.7081547924        0.7004173689
