     574
 i =      173, E =     -4778.8423371175
  C        11.8589002583       14.0534208589        5.7414912251
  C        12.4562102192       12.8905050808        5.0232881344
  C        11.7043468228       12.1715916744        4.0817171221
  C        12.2805458264       11.1093205083        3.3893791109
  C        13.6211202935       10.7393718556        3.6169863536
  C        14.3544335751       11.4428826087        4.5904025662
  C        13.7817265173       12.5079391020        5.2819293559
  C        14.2603113989        9.6485476339        2.8435631465
  C        14.2550533393        9.6562273797        1.4218642287
  C        13.7420519992       10.7584222775        0.6679584679
  C        49.1270099056       21.2332121847        5.8796347026
  C        48.5503614326       22.4012550586        5.1526511189
  C        49.3002262302       23.0682257394        4.1712965516
  C        48.7333062717       24.1073809860        3.4381060430
  C        47.4029484893       24.5094244741        3.6671095256
  C        46.6722511576       23.8609998193        4.6811057546
  C        47.2346691149       22.8160727263        5.4104269572
  C        46.7726223200       25.5870425683        2.8698310542
  C        46.7613772681       25.5572536798        1.4480801883
  C        47.2611963254       24.4421071440        0.7045819476
  C        14.8585100545        8.5696391217        0.7085695957
  C        14.8913012952        8.5966999963        3.5201793571
  C        49.1133726001       21.2034530262       10.1453916533
  C        48.5281273407       22.3649102477       10.8724994881
  C        49.2671451760       23.0250958316       11.8659193355
  C        48.6908721624       24.0596681148       12.5974029739
  C        47.3607261804       24.4570450212       12.3586692602
  C        46.6406299733       23.8127877655       11.3344963328
  C        47.2141143195       22.7768708370       10.6026961010
  C        46.7222332028       25.5319489919       13.1497161389
  C        46.7336496436       25.5280875268       14.5714214170
  C        47.2489333643       24.4288081762       15.3278194573
  C        40.6358613194       17.1439412494       15.3213809648
  C        40.6565650417       17.1833267579       12.5125369882
  C        11.8829917551       14.0863586451       10.2854575669
  C        12.4720242242       12.9105324233       10.9895721057
  C        11.7143937995       12.1776472909       11.9158732872
  C        12.2807156806       11.0950838435       12.5842720875
  C        13.6194104642       10.7209014301       12.3523314498
  C        14.3574435078       11.4360838658       11.3912694129
  C        13.7922940105       12.5173846869       10.7185787316
  C        14.2526640413        9.6240053896       13.1227579881
  C        14.2510086203        9.6438133909       14.5445978716
  C        13.7414176142       10.7528681686       15.2917037720
  C        22.5164525980        3.2433526169        5.7592620932
  C        23.2407853599        4.3454388745        5.0740832279
  C        24.1776026718        4.0673629653        4.0657864176
  C        24.7945275571        5.1074734197        3.3809416485
  C        24.5064644507        6.4556092039        3.6930760134
  C        23.6127907661        6.7198333080        4.7527694658
  C        22.9790687019        5.6806643432        5.4237407692
  C        25.0879041543        7.5634868683        2.9261167860
  C        25.0804818362        7.5436425536        1.4714802396
  C        24.3627625688        6.5834585396        0.7428332202
  C        38.3034208309       31.9311511946        5.8493395337
  C        37.5741889686       30.8419368283        5.1386970866
  C        36.6135348974       31.1467599075        4.1625745575
  C        35.9966297864       30.1270295355        3.4433885746
  C        36.3262688721       28.7782930214        3.6797562702
  C        37.2577975123       28.4807096409        4.6919321126
  C        37.8786263940       29.4992412632        5.4098993506
  C        35.7234367102       27.6870613184        2.8829528783
  C        35.7532809853       27.7020440465        1.4618001860
  C        36.4586471425       28.7044460307        0.7241305156
  C        25.7220954494        8.6045533654        0.7534578673
  C        25.6507564525        8.6568884555        3.5906193218
  C        38.3292870946       31.9628648219       10.1556506178
  C        37.6077979522       30.8888997807       10.8973876842
  C        36.6759336207       31.1970080200       11.9000672563
  C        36.0662412111       30.1779869844       12.6292105372
  C        36.3748528347       28.8260579088       12.3788367028
  C        37.2845278187       28.5277002900       11.3461420440
  C        37.8960142354       29.5432964494       10.6181794633
  C        35.7676625006       27.7269516237       13.1632730235
  C        35.7759013423       27.7224398567       14.5852027292
  C        36.4689388251       28.7146595706       15.3474303492
  C        46.1355895235       26.6206960976       15.2815638507
  C        46.0885106670       26.5804644626       12.4736748981
  C        22.4631540471        3.2563453078       10.2535857307
  C        23.1594995131        4.3650435202       10.9651268650
  C        24.0992317020        4.0857218050       11.9724300993
  C        24.7132615520        5.1198379281       12.6694680918
  C        24.4242612547        6.4721139033       12.3742709420
  C        23.5207884469        6.7401808896       11.3224570905
  C        22.8905068877        5.7051330481       10.6379190600
  C        25.0292923463        7.5725593656       13.1395840534
  C        25.0522400499        7.5470324137       14.5962969343
  C        24.3471716047        6.5865915047       15.3356437558
  C        26.6195806037       17.8620345543        5.7844214105
  C        25.3109142455       17.9097317717        5.0624170913
  C        25.0581251891       18.9028857511        4.1028964950
  C        23.8452886562       18.9271236747        3.4169623609
  C        22.8497319326       17.9603264050        3.6662490356
  C        23.0997946535       16.9894320223        4.6546322073
  C        24.3139582301       16.9605549727        5.3396747721
  C        21.5774167886       17.9477601490        2.9002135330
  C        21.5775628202       17.9280519520        1.4773444843
  C        22.7834160043       17.8091426242        0.7163598691
  C        34.4403784530       17.1903225841        5.9126945193
  C        35.7331422730       17.1382277214        5.1702571987
  C        35.9419981891       16.1679830798        4.1778286285
  C        37.1225525004       16.1589525456        3.4405717323
  C        38.1263368319       17.1174570908        3.6786481455
  C        37.9213958035       18.0671090068        4.6973335152
  C        36.7374752811       18.0827251800        5.4302916803
  C        39.3806654991       17.1299613739        2.8936930354
  C        39.3768107653       17.1493405971        1.4725199897
  C        38.1696222584       17.2684871838        0.7144020466
  C        20.3308466639       17.9436208805        0.7685694327
  C        20.3521140216       17.9482787179        3.5818021233
  C        34.4807118574       17.2483914020       10.1736968033
  C        35.7834956776       17.1777972293       10.8983614288
  C        36.0051211172       16.1859611808       11.8655097319
  C        37.1889140987       16.1722813782       12.5975781058
  C        38.1798704819       17.1485862274       12.3794837017
  C        37.9656118507       18.1156015874       11.3798833171
  C        36.7790170127       18.1351152010       10.6518800707
  C        39.4256008740       17.1671684184       13.1763364069
  C        39.3997130794       17.1688167064       14.5969772734
  C        38.1804350187       17.2758852107       15.3376271712
  C        35.1443934942       26.6444481411       15.2899398512
  C        35.1805114458       26.6543432209       12.4808000915
  C        26.5710976725       17.8284579652       10.3230312971
  C        25.2551951783       17.8715383731       11.0296485754
  C        24.9789684390       18.8941077182       11.9499498049
  C        23.7622596218       18.9192672084       12.6261896347
  C        22.7912125369       17.9227126369       12.4033391915
  C        23.0609852272       16.9242627420       11.4502594391
  C        24.2792100617       16.8965167730       10.7733922661
  C        21.5272386608       17.9078117088       13.1767342619
  C        21.5516021415       17.9073777287       14.5981079255
  C        22.7708560511       17.8000980528       15.3398195344
  C        14.0467052515       17.8287253199       10.2890738526
  C        15.3506165063       17.8855586267       11.0148570832
  C        15.6074317555       18.8896217696       11.9615662526
  C        16.8161283759       18.9105092698       12.6548343853
  C        17.8023583475       17.9301518080       12.4237834592
  C        17.5501988277       16.9501646423       11.4450950226
  C        16.3409854529       16.9247358317       10.7532566379
  C        19.0714146156       17.9145586238       13.1926948963
  C        19.0703585306       17.9168787171       14.6151920859
  C        17.8634806301       17.8186585545       15.3767447432
  C        46.8073827675       17.2206251990       10.1595313620
  C        45.5197723064       17.1656995214       10.9083658133
  C        45.3125654123       16.1924133573       11.8976606973
  C        44.1325642758       16.1828078381       12.6362468611
  C        43.1317920879       17.1467029795       12.4061141152
  C        43.3366695377       18.1002137170       11.3910087083
  C        44.5172454658       18.1137325264       10.6536687141
  C        41.8791786057       17.1637229564       13.1933621357
  C        41.8833939055       17.1600902813       14.6147886665
  C        43.0916693568       17.2532406513       15.3747906840
  C        20.3171894775       17.9320122245       15.3234277400
  C        20.2955217804       17.8916226089       12.5101487334
  C        46.7863819878       17.2309937136        5.8903267476
  C        45.4826474770       17.1257941796        5.1764149271
  C        45.2646323987       16.1308542151        4.2116980018
  C        44.0766735067       16.1072418716        3.4855169886
  C        43.0784816451       17.0752745382        3.7082664526
  C        43.2861261936       18.0388622528        4.7125180769
  C        44.4754195115       18.0692111882        5.4332305648
  C        41.8337012374       17.1023970602        2.9103649797
  C        41.8604479482       17.1269178803        1.4899461323
  C        43.0807851611       17.2352759922        0.7513239445
  C        46.1533277297       26.6371102321        0.7263277734
  C        46.1628322823       26.6562716147        3.5359503988
  C        14.0458760210       17.8323494072        5.7090107075
  C        15.3669214508       17.9087072709        5.0191905706
  C        15.6390331481       18.9253476234        4.0914841632
  C        16.8679746891       18.9648956985        3.4367756266
  C        17.8525874167       17.9870800083        3.6839327362
  C        17.5874106387       16.9995602040        4.6501357662
  C        16.3604417681       16.9594670299        5.3084070200
  C        19.1197972601       17.9646475969        2.9147856611
  C        19.0956347394       17.9411964814        1.4933252755
  C        17.8758892348       17.8295435043        0.7528985567
  C        28.8127132390       14.0887095143       10.3877846332
  C        28.2051416382       12.9098804186       11.0604001547
  C        28.8836110996       12.2249453744       12.0821298431
  C        28.2715186621       11.1644355095       12.7392206251
  C        26.9677171424       10.7417260294       12.3875694163
  C        26.3261280681       11.3928728619       11.3120977008
  C        26.9291561768       12.4669922424       10.6691521826
  C        26.2788067671        9.6873036452       13.1383923352
  C        26.2886875189        9.6997929981       14.5932659725
  C        26.7387063741       10.8102542136       15.3224162243
  C        32.1823236201       21.2436512278       10.1351730371
  C        32.7804392291       22.4060418665       10.8589105091
  C        32.0292099301       23.0894857192       11.8279446888
  C        32.6004247992       24.1263089502       12.5595788523
  C        33.9381567266       24.5089452067       12.3416992574
  C        34.6724328821       23.8437335481       11.3418155916
  C        34.1039437536       22.8005983832       10.6129573837
  C        34.5648823120       25.5858831160       13.1414402448
  C        34.5522814009       25.5605232810       14.5628329304
  C        34.0382575053       24.4486565164       15.3020187289
  C        25.7122346114        8.6021515447       15.3094011968
  C        25.6053623356        8.6578276747       12.4710474538
  C        32.1047407328       21.2298655764        5.8786298768
  C        32.6955428582       22.3827564066        5.1369253640
  C        31.9605634659       23.0432757015        4.1404181248
  C        32.5405269141       24.0736155628        3.4043410098
  C        33.8694800547       24.4728797994        3.6463897526
  C        34.5874859148       23.8258997130        4.6703538165
  C        34.0119676827       22.7903131969        5.4019785452
  C        34.5089980252       25.5536053714        2.8616549188
  C        34.5230895912       25.5443228103        1.4399166767
  C        34.0233378877       24.4412016477        0.6786993028
  C        40.6239430946       17.1303656696        0.7653359884
  C        40.6027856986       17.1232017692        3.5747333044
  C        28.7450628538       14.0612239450        5.8265178294
  C        28.1408915894       12.9100564811        5.1023779340
  C        28.8269188245       12.2902241914        4.0449958210
  C        28.2382672012       11.2428290552        3.3461774130
  C        26.9482302589       10.7727875778        3.6844195881
  C        26.2903304138       11.3732133257        4.7809257220
  C        26.8720719995       12.4306265076        5.4710749946
  C        26.2919757195        9.7042604424        2.9208337253
  C        26.2974175801        9.7089762834        1.4651122912
  C        26.7418404576       10.8163955249        0.7284194285
  C        18.1354428054        3.1811575064       10.3172029213
  C        17.4059242056        4.2781922851       11.0159552807
  C        16.3884031272        3.9996137354       11.9414186217
  C        15.7402723514        5.0394116389       12.6048135651
  C        16.0936121430        6.3830601164       12.3669762429
  C        17.0850241020        6.6528349415       11.4054049760
  C        17.7346131915        5.6156842973       10.7404929098
  C        15.4687645899        7.4905114220       13.1300244250
  C        15.4833976127        7.4894796215       14.5517445282
  C        16.1841992294        6.4953162590       15.3048913073
  C        42.9460025501       31.8598445561       10.0728929646
  C        43.6465563167       30.7720104740       10.8168800579
  C        44.5918439446       31.0934036952       11.8031123235
  C        45.1976302815       30.0879012191       12.5508233724
  C        44.8715586367       28.7348073907       12.3357373445
  C        43.9460966330       28.4203907081       11.3222238733
  C        43.3372199753       29.4255049211       10.5741706662
  C        45.4890785964       27.6554703624       13.1389334172
  C        45.4929654906       27.6808764658       14.5606370780
  C        44.8058742456       28.6889228500       15.3072646906
  C        14.8546540061        8.5620917347       15.2641329044
  C        14.8739898240        8.5625342965       12.4514543275
  C        42.9464964420       31.9618755209        5.8090109161
  C        43.6918660065       30.8855601421        5.0955081251
  C        44.6563828070       31.1914755688        4.1231876448
  C        45.2779743027       30.1719032830        3.4054456580
  C        44.9543192572       28.8215982123        3.6431671145
  C        44.0210034039       28.5239014238        4.6540800682
  C        43.3927136511       29.5406780489        5.3662487423
  C        45.5633222799       27.7241565567        2.8579198446
  C        45.5333993181       27.7172922723        1.4366246770
  C        44.8271170758       28.7075463915        0.6836590407
  C        35.1311912388       26.6350432770        0.7347650929
  C        35.1202622205       26.6117227504        3.5444256579
  C        18.1485780740        3.2471423239        5.7065654041
  C        17.4298764908        4.3437691354        4.9970273874
  C        16.4132040017        4.0523294301        4.0751284007
  C        15.7645927448        5.0828053256        3.3997843057
  C        16.1204525392        6.4279629272        3.6209985317
  C        17.1135822682        6.7115240728        4.5763578815
  C        17.7616192546        5.6827731755        5.2560623618
  C        15.4895213196        7.5234605862        2.8485734686
  C        15.4946211834        7.5064531987        1.4274387308
  C        16.1905222867        6.5041713865        0.6807135923
  H        10.6722375027       12.4658003247        3.9047627419
  H        11.6941719131       10.5508703106        2.6628902023
  H        15.3914685185       11.1682251060        4.7720242100
  H        14.3514198310       13.0711203178        6.0172162824
  H        13.3754338547       11.6307262642        1.2012402471
  H        50.3227987973       22.7479066059        3.9862741784
  H        49.3196895104       24.6223923845        2.6802745459
  H        45.6429838505       24.1622699285        4.8647108702
  H        46.6638800924       22.2911915407        6.1729310114
  H        47.6297756900       23.5757433023        1.2462593561
  H        14.8724038185        8.5882596554        4.6084996238
  H        50.2869880800       22.7018156618       12.0611941286
  H        49.2691448099       24.5747247687       13.3612667733
  H        45.6115295445       24.1107174357       11.1448741940
  H        46.6535686782       22.2552635162        9.8305604732
  H        47.6077508791       23.5516962981       14.7969390056
  H        40.6637995980       17.1544083061       11.4246506928
  H        48.6872129584       14.0948967523        7.8000549617
  H        10.6810260435       12.4670087917       12.0933601825
  H        11.6888658247       10.5248936778       13.2970772910
  H        15.3927617471       11.1578596879       11.2052085670
  H        14.3648012329       13.0864813500        9.9899692619
  H        13.3749201632       11.6216490527       14.7531221798
  H        47.9303145699       14.2181195708        9.7109913650
  H        47.7801257159       14.3736884219        6.4953897262
  H        49.0849134795       18.5530032980       10.8677146903
  H        10.4165397412       14.1342304531        7.9986729156
  H        24.3947679654        3.0282626211        3.8287058448
  H        25.5173318008        4.8895849740        2.5981023511
  H        23.3803229062        7.7529724019        5.0020969688
  H        22.2560950535        5.8787263699        6.2112946727
  H        23.7767451456        5.8392532275        1.2734496963
  H        36.3756029788       32.1901867456        3.9698061620
  H        35.2509468557       30.3659907459        2.6883180263
  H        37.5195042185       27.4415400167        4.8802406610
  H        38.6236402237       29.2788376922        6.1707111043
  H        37.0233596269       29.4546750436        1.2699749982
  H        25.6767491524        8.6437321321        4.6788184942
  H        36.4505065991       32.2410693835       12.1053745393
  H        35.3380054738       30.4219600954       13.3995298105
  H        37.5346738815       27.4878045892       11.1466991678
  H        38.6210728944       29.3189144793        9.8396674056
  H        37.0424469288       29.4723595397       14.8213104422
  H        46.1103226000       26.5881498839       11.3856486401
  H        44.6685426984       35.1162254491        7.8141173786
  H        24.3368884911        3.0470804194       12.1904708426
  H        25.4432232258        4.8926752347       13.4430379677
  H        23.2820815904        7.7744358621       11.0833641973
  H        22.1679015558        5.9128029024        9.8521545561
  H        23.7481251842        5.8456419452       14.8149846740
  H        44.9546824489       34.3911505768        9.6957598208
  H        44.9023451024       34.2068050156        6.4909974174
  H        40.6665942345       33.2097091942       10.8533722801
  H        23.1504802142        1.9578588725        8.0062728477
  H        25.8264709736       19.6481328999        3.9096348778
  H        23.6538826110       19.7043035538        2.6800843312
  H        22.3436092100       16.2333403941        4.8560269603
  H        24.5175079138       16.1967698448        6.0867060043
  H        23.7247767531       17.6940286730        1.2457493836
  H        35.1643839840       15.4308235563        3.9928653236
  H        37.2837496345       15.3998659985        2.6782234079
  H        38.6898011675       18.8143199015        4.8847107092
  H        36.5610598537       18.8301537497        6.2003344706
  H        37.2292380217       17.3827590001        1.2459205920
  H        20.3586227724       17.9872395090        4.6697043581
  H        35.2322084195       15.4404093689       12.0374483816
  H        37.3606696497       15.4006552928       13.3449145632
  H        38.7261845377       18.8743711845       11.2075283832
  H        36.5903879151       18.8976837358        9.8998389711
  H        37.2482842989       17.3951891303       14.7929060659
  H        35.1554805844       26.6782707865       11.3929923458
  H        28.4938218773       21.0843527348        7.8791435151
  H        25.7301128837       19.6636392112       12.1137253048
  H        23.5476391659       19.7158956061       13.3353889024
  H        22.3193303342       16.1480435732       11.2729742909
  H        24.5035738649       16.1142456463       10.0521040750
  H        23.7023358027       17.6783974535       14.7949769322
  H        28.9993597497       21.7293144952        9.7413712263
  H        29.1987821577       21.7180478091        6.5708033583
  H        32.1408880841       18.6364672204       10.8586476797
  H        27.3909722791       19.0603611807        8.0716649895
  H        14.8494060629       19.6493360457       12.1386434956
  H        17.0116139745       19.6955180330       13.3822066359
  H        18.3010677921       16.1853153071       11.2575604400
  H        16.1350034499       16.1548821718       10.0134132343
  H        16.9210362600       17.7009578851       14.8498627825
  H        46.0929163884       15.4573611510       12.0802748953
  H        43.9704786441       15.4204075070       13.3949994230
  H        42.5713672358       18.8522450534       11.2106505569
  H        44.6936970938       18.8635705978        9.8861331296
  H        44.0335337443       17.3708714009       14.8465515639
  H        20.2895246630       17.9149448258       11.4218578166
  H        46.0419424309       15.3916366253        4.0320855907
  H        43.9095788708       15.3362726768        2.7364694480
  H        42.5193817420       18.7899738249        4.8904551865
  H        44.6589734389       18.8325211585        6.1853319876
  H        44.0143489531       17.3379933287        1.2969146491
  H        46.2000151306       26.6830528908        4.6233795737
  H        52.7412982301       21.0626726138        8.1947078900
  H        14.8774991979       19.6781465124        3.9001454390
  H        17.0780716530       19.7561309811        2.7203144831
  H        18.3390753559       16.2383428867        4.8487824532
  H        16.1404674879       16.1840505668        6.0381595905
  H        16.9426966344       17.7202224160        1.2972038481
  H        52.3226694865       21.6734008374        6.2942486467
  H        52.0134362846       21.7022011423        9.4956809374
  H        49.0682349437       18.6078934035        5.2038240437
  H        13.2478415426       19.0160691196        7.9774780325
  H        29.8904108755       12.5405963231       12.3462273418
  H        28.8000726057       10.6385670279       13.5309266200
  H        25.3231635788       11.0811620144       11.0281462162
  H        26.4204827323       12.9990465019        9.8690424312
  H        27.0651038559       11.6993446602       14.7920395954
  H        30.9991972696       22.7855647769       11.9988170560
  H        32.0125716423       24.6566132025       13.3056864603
  H        35.7076120780       24.1306306037       11.1682229328
  H        34.6753532114       22.2621817929        9.8601895849
  H        33.6787252193       23.5816464745       14.7555257415
  H        25.6198768457        8.6477375293       11.3824439503
  H        30.9371736783       22.7298433782        3.9481062715
  H        31.9634761006       24.5874603207        2.6385764079
  H        35.6162479187       24.1235996180        4.8625400604
  H        34.5711850546       22.2681044541        6.1748590233
  H        33.6522660697       23.5683014251        1.2081183550
  H        40.5947148688       17.0796798126        4.6621556890
  H        32.5113120109       14.1456254372        8.2430151545
  H        29.8182389459       12.6503154141        3.7815601541
  H        28.7804825819       10.7630271066        2.5349253742
  H        25.2936625577       11.0303874336        5.0506475402
  H        26.3523296712       12.9173238097        6.2929201080
  H        27.0701942052       11.7100067400        1.2504665989
  H        33.3061855728       14.2168056509        6.4611303033
  H        33.4099906024       14.4003795586        9.5987742408
  H        32.1036924501       18.5004652276        5.1565912928
  H        30.2186780993       14.1885563892        8.0696356620
  H        16.1153570927        2.9631015650       12.1263005732
  H        14.9494913375        4.8199669766       13.3189822847
  H        17.3688696675        7.6856534024       11.2140896533
  H        18.5186377071        5.8184016367       10.0148029896
  H        16.7501395202        5.7375911139       14.7712807459
  H        44.8278438007       32.1405492076       11.9773603833
  H        45.9373600949       30.3417804152       13.3068627612
  H        43.6838822148       27.3782510597       11.1517991124
  H        42.6009660364       29.1902358271        9.8091342000
  H        44.2307884756       29.4368603483       14.7689099617
  H        14.8508806324        8.5460601362       11.3632188119
  H        44.8998373703       32.2341927880        3.9317872775
  H        46.0248704030       30.4132078007        2.6522189829
  H        43.7643469832       27.4841325662        4.8458370753
  H        42.6464331379       29.3180076862        6.1249470061
  H        44.2688411177       29.4705804745        1.2182778062
  H        35.0794469906       26.6244610951        4.6319374754
  H        36.6054586791       35.1342058817        8.1804715091
  H        16.1412901959        3.0127609957        3.9067056541
  H        14.9711348385        4.8559396052        2.6909743980
  H        17.3983177032        7.7469133017        4.7517161302
  H        18.5461999476        5.8932374046        5.9789790474
  H        16.7614180338        5.7535628792        1.2192061261
  H        36.2792188046       34.4823322782        6.2731117135
  H        36.3820194790       34.2087095919        9.4991071950
  H        40.5806813164       33.2030434097        5.1533532215
  H        17.4702564860        1.9478291319        7.9741898015
  H        29.2061072734       19.5342155395       12.4484516455
  H        29.8151722513       19.7647143665        3.6209335424
  H        32.0551858938       15.9885746651        3.6155070067
  H        31.2741452486       15.5545823320       12.4599190551
  H        28.2055623511       18.4434080108       14.5945493439
  H        29.5476542530       15.3760425544       14.5168906604
  H        31.7350561240       19.8503198203        1.4143088452
  H        32.8332672940       17.4543189906        1.1673791840
  H        29.9915146267       15.3709330419        2.8331554490
  H        32.5291186426       17.5911813825       13.1507366812
  H        18.8544872710        0.8697212080       12.3344741626
  H        40.5282840277       35.2290249671        3.9521539953
  H        42.3231578314       34.4175103839        3.5913838456
  H        22.0857394341        0.6946164740       12.3496944048
  H        11.5969069979       18.7127447389       12.3825987549
  H        52.2650183702       18.4314007353        3.6770635502
  H        49.2559436724       16.4766442692        3.5840534341
  H        10.1496578262       15.7981693655       12.2929245236
  H        50.8503714673       17.6923133054        3.9542048099
  H        10.0459506726       17.3944560548       12.0519211428
  H        20.2158447397        0.0022509198       12.0416070581
  H        39.1840649972       36.1249040757        3.6871972483
 Ni        30.8643840801       17.8609954971        2.7473899658
 Ni        30.8559874697       16.6428481761        0.1692340919
 Ni        29.9772439771       18.8600800079        0.1673288661
 Ni        30.2138489348       17.5561231697       13.1605545188
  O        10.6499777375       14.3651032276        5.4859177840
  O        12.6131870720       14.6575109398        6.5839118193
  O        49.1481682339       16.8458317999        7.9896888412
  O        50.3503451109       20.9357190105        5.6479904491
  O        48.3486026216       20.5933456750        6.6658685528
  O        11.0519178992       17.0537253018        6.5007784381
  O        50.3211354591       20.8816550634       10.4068301437
  O        48.3467899619       20.5868183251        9.3271632336
  O        49.5438263017       18.2484023306       10.0682268897
  O        12.3592229616       18.6246073049        7.9996803778
  O        48.6933069033       14.1485431880        6.7513274079
  O         8.2099262351       14.2103819617        9.3225198471
  O        10.7353451880       14.5068251296       10.6642781856
  O        12.5718197310       14.5828350832        9.3285197996
  O        22.8436184734        2.0411062940        5.4872417688
  O        21.6050768111        3.5914489457        6.5915086993
  O        42.0585367706       34.1378171676        7.9790945289
  O        37.9817075784       33.1388472425        5.5726735721
  O        39.2181766668       31.5763732742        6.6667322615
  O        20.3083733699        1.0395223957        6.5022392715
  O        38.0246735585       33.1859137709       10.4152042099
  O        39.2193555031       31.5838144859        9.3262756649
  O        40.6524179036       33.7695357631       10.0602091613
  O        18.2549324954        1.3766902078        7.9967820960
  O        44.6223327102       35.1004003179        6.7589222876
  O        24.2054674777       -0.0000857623        9.3206302075
  O        22.7520943001        2.0574655092       10.5841302217
  O        21.6238108494        3.5946227703        9.3390197769
  O        27.4942828942       18.7506427489        5.4959706072
  O        26.7642111408       16.9321907874        6.6536617586
  O        30.6641819054       19.4109092208        8.0050005453
  O        33.5834992154       16.2734244675        5.6601122836
  O        34.2787430645       18.1633963562        6.7279705091
  O        29.5748707433       17.0602169707        6.5721299172
  O        33.6221689135       16.3319434785       10.4103803904
  O        34.3054557559       18.2496760390        9.4020716874
  O        31.6568701313       18.3176234665       10.0833347548
  O        30.3212133784       15.1543608559        8.0814858819
  O        28.5528489117       21.0348276688        6.8306352179
  O        28.5109439420       20.9607061638        9.4014205011
  O        27.4564253281       18.6794195675       10.6568207134
  O        26.6938256808       16.9280840932        9.4122068483
  O        13.1486649872       18.6929280284       10.5874002780
  O        13.9194201906       16.9162393003        9.4051068119
  O        50.5965937876       19.3503524753        8.0204101917
  O        47.6835554975       16.3270407048       10.4172635102
  O        46.9526513000       18.1762014807        9.3238385786
  O        11.0700056910       17.0154111922        9.4895812413
  O        47.6763358666       16.3355033611        5.6531282633
  O        46.9279457681       18.2358566029        6.6650485911
  O        49.5689508360       18.3176926349        5.9822360194
  O        10.3187461672       15.1000445925        7.9970893956
  O        52.6707918195       21.0278782796        9.2418186280
  O        12.1468445110       20.8912261611        6.6732596771
  O        13.1079641017       18.6137326963        5.3256921065
  O        13.9574009791       16.9871843019        6.6652638317
  O        29.9950842140       14.4481760800       10.7328901839
  O        28.0905923416       14.6543106035        9.4935003210
  O        32.1388453413       16.8508657370        8.0647409738
  O        30.9686418627       20.9560616236       10.4028315153
  O        32.9493268849       20.5997944974        9.3340749826
  O        29.5680916445       17.0743441078        9.5731471783
  O        30.8747896840       20.9486742202        5.6574457207
  O        32.8791743565       20.5880842280        6.6623252300
  O        31.6866390685       18.2490020461        5.9965233651
  O        28.2814057305       18.6736065400        8.0649159026
  O        32.4929887246       14.2123953415        9.3259070139
  O        32.4050837386       14.2150034593        6.8250119877
  O        29.9157031947       14.4390888371        5.4906056025
  O        28.0385147438       14.5902187010        6.7571403288
  O        17.8891961234        1.9666240621       10.6629107143
  O        18.9559223229        3.5272563678        9.4080543896
  O        39.1684523175       34.1388514696        7.9972466319
  O        43.2802646846       33.0589980869       10.3318611692
  O        42.0346369546       31.5063740457        9.2417027973
  O        20.3176004763        1.0368150353        9.4800249623
  O        43.2761124726       33.1825610836        5.5747626425
  O        42.0052913032       31.5840514960        6.5829165046
  O        40.5790603035       33.7751321741        5.9358505912
  O        22.3674581883        1.3844474354        7.9979384523
  O        36.6727145166       35.0998064445        9.2332436240
  O        16.4455346384        0.0644218467        6.6683589269
  O        17.9365220643        2.0433771908        5.3262823994
  O        18.9187360030        3.5932627093        6.6658068138
  O        29.8613910192       18.9079566387        4.0834328520
  O        29.8224930938       18.9944842996       11.9202099449
  O        31.2646486328       16.3375984965        4.0688636521
  O        31.3918901887       16.4041627381       11.9941186109
  O        32.1422574415       16.8599397294        1.5066517108
  O        29.4971834852       15.1680601313        2.0011037848
  O        30.2497483611       16.0459859605       14.4973468351
  O        32.1931597014       18.2417316700       13.8168171904
  O        30.8367394684       19.5641818303        1.6539581687
  O        29.1430702470       18.6870856025       14.5123999572
  O        39.4568454141       35.2438359919        4.0018987306
  O        19.1419830302        0.0047961851       11.9905088425
  O        41.9694765637       35.1726221350        4.0866271632
  O        21.6912830322       -0.0692806329       11.8964459858
  O        51.3651980986       18.6143153803        4.0053582382
  O        10.7511693776       18.7471067491       11.9049285980
  O        50.0801604942       16.4128112035        4.0916653584
  O         9.5239646055       16.4831375665       11.9912282941
 Zr         9.2979270529       16.0525160998        6.1825199025
 Zr        49.8372055632       16.0064853720        9.7462372940
 Zr        22.0739593373        0.0317569488        6.1885834803
 Zr        42.4615732582       35.1555198719        9.8013245767
 Zr        29.6002320641       19.0752953782        6.2349392212
 Zr        29.5760033365       19.1894105684        9.8008678483
 Zr        11.0387396784       19.0517576254        9.8277944690
 Zr        11.0447115388       19.1546461825        6.2507549792
 Zr        31.3556130668       16.0996734324        9.8409718297
 Zr        31.3794491245       16.0070782637        6.2596287180
 Zr        18.6019660887        0.0002003797        9.7632162222
 Zr        18.5072915659       -0.0061534102        6.2141160847
 Zr        12.3030433729       16.3233491383        7.9903003057
 Zr        48.6179450685       18.8333748479        8.0100951086
 Zr        20.3160233460        2.4751162793        7.9904229424
 Zr        40.6448110739       32.6891976470        7.9783479183
 Zr        28.3371576323       16.3368066469        8.0817565693
 Zr        32.6259748163       18.8360089759        8.0264756255
  H        32.2702676716       19.1179775120       13.3965114393
  H        28.5950222633       15.4713587004        2.1917063735
