     578
 i =      156, E =     -4781.1280320910
  C        11.8583379655       14.0538478673        5.7416923368
  C        12.4560212396       12.8905491563        5.0232283613
  C        11.7046536504       12.1723483004        4.0808544279
  C        12.2809520840       11.1100780434        3.3884322546
  C        13.6211482531       10.7394985055        3.6169376199
  C        14.3539594602       11.4423531064        4.5911719849
  C        13.7811187673       12.5073999464        5.2826681655
  C        14.2608159509        9.6488857489        2.8435444627
  C        14.2566036646        9.6569358717        1.4218177026
  C        13.7437373555       10.7591894415        0.6678734397
  C        49.1264664358       21.2333422773        5.8798776234
  C        48.5495834757       22.4011397991        5.1525666916
  C        49.2997397419       23.0687947692        4.1719122043
  C        48.7327456890       24.1078451789        3.4386664388
  C        47.4020768816       24.5091699045        3.6670730603
  C        46.6708639165       23.8597276389        4.6800094190
  C        47.2333361053       22.8147739314        5.4092894972
  C        46.7719133917       25.5868695550        2.8698123784
  C        46.7611703591       25.5574308583        1.4480086195
  C        47.2609082751       24.4422361305        0.7046021328
  C        14.8604337450        8.5704970266        0.7085789431
  C        14.8911722127        8.5966408106        3.5201505440
  C        49.1130765464       21.2032813563       10.1452255888
  C        48.5276591111       22.3646015737       10.8726352788
  C        49.2668888823       23.0254183911       11.8654544524
  C        48.6905110882       24.0599141953       12.5969568684
  C        47.3600864096       24.4566395546       12.3587158516
  C        46.6395932334       23.8114995609       11.3354123913
  C        47.2131699965       22.7755519929       10.6036902759
  C        46.7216744409       25.5316472128       13.1496724363
  C        46.7335073661       25.5281913241       14.5714153977
  C        47.2486884550       24.4289019443       15.3278092870
  C        40.6173976729       17.1178872677       15.3217800111
  C        40.6361925304       17.1995765443       12.5085400815
  C        11.8824305841       14.0867411551       10.2852531714
  C        12.4716789035       12.9103550286       10.9894819761
  C        11.7143172570       12.1778313706       11.9161570873
  C        12.2806564219       11.0952340502       12.5846696170
  C        13.6191134700       10.7207132981       12.3522602685
  C        14.3568606237       11.4355179940       11.3907389815
  C        13.7916749963       12.5168806632       10.7180946891
  C        14.2527472016        9.6239597287       13.1227058466
  C        14.2523514478        9.6443232230       14.5445647298
  C        13.7430176890       10.7535489589       15.2916118811
  C        22.5106376701        3.2445756728        5.7533552712
  C        23.2229222662        4.3526240734        5.0535497432
  C        24.2226610473        4.0769539152        4.1090384974
  C        24.8468137827        5.1191435775        3.4281707696
  C        24.4872997317        6.4599531942        3.6713868125
  C        23.5149870957        6.7270699567        4.6526022835
  C        22.8864635825        5.6865909854        5.3318505120
  C        25.0912655678        7.5686536499        2.8978552200
  C        25.0779526285        7.5561566377        1.4742496013
  C        24.3839994418        6.5547857420        0.7261128440
  C        38.2979546270       31.9235429171        5.8529541690
  C        37.5621016527       30.8281858022        5.1588911801
  C        36.5970978359       31.1192501563        4.1816233511
  C        35.9791869515       30.0906610768        3.4757668857
  C        36.3084007555       28.7419245974        3.7217750505
  C        37.2401260431       28.4592068860        4.7394084312
  C        37.8624802026       29.4864112975        5.4445737938
  C        35.7138367640       27.6460370719        2.9231775378
  C        35.7360851393       27.6757330315        1.4962768559
  C        36.4414653883       28.6788086726        0.7669043942
  C        25.7057263277        8.6249252848        0.7561118771
  C        25.6739845805        8.6501978376        3.5697604524
  C        38.3301371654       31.9591227593       10.1619082204
  C        37.6170560542       30.8871137193       10.9107834681
  C        36.7019632944       31.1929414390       11.9313397005
  C        36.1002575935       30.1742521872       12.6671940116
  C        36.3932042382       28.8187377166       12.4078275378
  C        37.2865875533       28.5242329426       11.3573450380
  C        37.8926911439       29.5391974473       10.6244206738
  C        35.7855056614       27.7186332258       13.1889944216
  C        35.7727342977       27.7128116321       14.6157623504
  C        36.4586703744       28.6980337412       15.3872313682
  C        46.1356235950       26.6209562420       15.2814832917
  C        46.0875857715       26.5799052797       12.4736087633
  C        22.4631484755        3.2568933636       10.2584034861
  C        23.1624402981        4.3662798352       10.9801266790
  C        24.1673267934        4.0800460283       11.9183320490
  C        24.7992972181        5.1092780198       12.6130826224
  C        24.4481911508        6.4566950197       12.3931517762
  C        23.4661229463        6.7360766981       11.4233990219
  C        22.8295226274        5.7069044223       10.7292973978
  C        25.0811412004        7.5545800841       13.1682612727
  C        25.0740747405        7.5478414343       14.5935577657
  C        24.3796958630        6.5521752724       15.3477712798
  C        26.6050775993       17.8554782168        5.7427929326
  C        25.3107504644       17.9206456237        5.0285608477
  C        25.0562361367       18.9074134569        4.0585098248
  C        23.8411576443       18.9321928466        3.3816654304
  C        22.8338438607       17.9796941471        3.6520905282
  C        23.0800127530       17.0264475670        4.6617129501
  C        24.2981927341       16.9907629267        5.3324489275
  C        21.5667350754       17.9615027917        2.8896027505
  C        21.5718527166       17.9546334412        1.4641727396
  C        22.7767058969       17.8272935382        0.7081153751
  C        34.4284107880       17.2181715896        5.9242973045
  C        35.7176370565       17.1535826343        5.1884614168
  C        35.9112201920       16.1955149069        4.1784037715
  C        37.0907526938       16.1790193446        3.4410355187
  C        38.1163530945       17.1143965833        3.6924202827
  C        37.9259572493       18.0462857861        4.7329223150
  C        36.7427880235       18.0722652465        5.4661291686
  C        39.3673950916       17.1219361987        2.9047858179
  C        39.3604087880       17.1265283828        1.4786845182
  C        38.1574747148       17.2517206462        0.7219065005
  C        20.3277449080       17.9743152982        0.7519413642
  C        20.3387529268       17.9415864959        3.5679236904
  C        34.4379673141       17.2277909405       10.2282421530
  C        35.7291843392       17.1519670794       10.9286050567
  C        35.9550311893       16.1855544820       11.9291393500
  C        37.1435641319       16.1797308379       12.6466516972
  C        38.1594590604       17.1255884570       12.3822983854
  C        37.9488224518       18.0497927793       11.3356461683
  C        36.7523831472       18.0734189204       10.6305206232
  C        39.4019704505       17.1580601781       13.1714385170
  C        39.3798448043       17.1448788964       14.5984913096
  C        38.1677204727       17.2597753998       15.3417611831
  C        35.1319693947       26.6332003011       15.3140098832
  C        35.2141463828       26.6395699015       12.5006062260
  C        26.5807229913       17.7976370014       10.3313176790
  C        25.2733187354       17.8712308711       11.0301388998
  C        25.0300073768       18.8678723682       11.9899809120
  C        23.8099332970       18.9113986036       12.6571649341
  C        22.8005965966       17.9611791410       12.3919527576
  C        23.0391189741       16.9960168131       11.3943220266
  C        24.2585175085       16.9481334183       10.7251379829
  C        21.5375106419       17.9500344746       13.1606013231
  C        21.5573155965       17.9468196910       14.5846826464
  C        22.7698092738       17.8232469545       15.3301540401
  C        14.0477638218       17.8324238787       10.2846511079
  C        15.3558390708       17.8994257797       11.0013386304
  C        15.6109053971       18.9073230515       11.9446589013
  C        16.8218771175       18.9365928321       12.6328541946
  C        17.8134054024       17.9617935255       12.3994631054
  C        17.5636347805       16.9796715914       11.4219444793
  C        16.3515538583       16.9453838489       10.7357017121
  C        19.0809097435       17.9505712475       13.1687505566
  C        19.0750476073       17.9531802306       14.5938807694
  C        17.8681644004       17.8491860856       15.3501441551
  C        46.8020567956       17.2204857170       10.1604253152
  C        45.5118789110       17.1647135329       10.9043988095
  C        45.3035146915       16.2004148286       11.9035355101
  C        44.1212064159       16.1926819477       12.6386530519
  C        43.1121988118       17.1475487760       12.3980235990
  C        43.3184660508       18.0899334797       11.3710931253
  C        44.5019137615       18.1028167138       10.6377529558
  C        41.8591134075       17.1668966347       13.1850941571
  C        41.8647691265       17.1447530167       14.6126551549
  C        43.0688181714       17.2393155541       15.3706501635
  C        20.3198905258       17.9704233811       15.3061459107
  C        20.3064038674       17.9279483698       12.4911865602
  C        46.7824016460       17.2294146672        5.8900874734
  C        45.4787854652       17.1197668489        5.1810426503
  C        45.2686525611       16.1399444366        4.1974921391
  C        44.0805143990       16.1158467195        3.4727294095
  C        43.0670786005       17.0658441492        3.7134725673
  C        43.2669057971       18.0105216722        4.7392959505
  C        44.4574258062       18.0435482504        5.4574553128
  C        41.8229331304       17.0933464481        2.9172661718
  C        41.8462790536       17.1065437762        1.4916285543
  C        43.0606534883       17.2188268297        0.7509222852
  C        46.1533123189       26.6373939878        0.7262416889
  C        46.1617215734       26.6558536033        3.5358873405
  C        14.0433096055       17.8305366078        5.7069696004
  C        15.3613618023       17.9041318759        5.0111246128
  C        15.6299289644       18.9203053041        4.0816991180
  C        16.8557817156       18.9596167897        3.4217504011
  C        17.8422243103       17.9825852723        3.6656922955
  C        17.5793224244       16.9938398063        4.6317412812
  C        16.3551786952       16.9538683261        5.2951411302
  C        19.1096474120       17.9657019285        2.8983834240
  C        19.0898746234       17.9608242312        1.4733419614
  C        17.8756075228       17.8523824092        0.7288940713
  C        28.7878296290       14.1177324426       10.3989726937
  C        28.1974533100       12.9406886220       11.0865005810
  C        28.9252314244       12.2059384044       12.0382876879
  C        28.3334020966       11.1273618437       12.6908412893
  C        27.0014206514       10.7497781760       12.4132828470
  C        26.3020137931       11.4594753634       11.4188292197
  C        26.8875149866       12.5416224149       10.7694823741
  C        26.3360772034        9.6675004918       13.1705086299
  C        26.3223945503        9.6933326011       14.5931651112
  C        26.8147051586       10.8085905785       15.3399968968
  C        32.1952110715       21.2418330716       10.1451385441
  C        32.7940056821       22.3975524017       10.8651132867
  C        32.0331787843       23.1158315063       11.8032845755
  C        32.6086302602       24.1475711972       12.5366502948
  C        33.9600428945       24.5009608909       12.3495574673
  C        34.7030929430       23.8049970855       11.3765508009
  C        34.1322706152       22.7624824757       10.6488662833
  C        34.5837837408       25.5760084597       13.1530896330
  C        34.5464387239       25.5510422227       14.5775055190
  C        34.0259146334       24.4401604005       15.3070956729
  C        25.7099491459        8.6157884231       15.3103940011
  C        25.6950563505        8.6190405401       12.4951025679
  C        32.0769196347       21.1784231026        5.8760843796
  C        32.6590681458       22.3226447608        5.1504103139
  C        31.9447750591       22.9684625938        4.1203414134
  C        32.5314668565       23.9951371087        3.3890000675
  C        33.8469038884       24.4338936390        3.6655727198
  C        34.5346674898       23.8118756079        4.7323348792
  C        33.9615095070       22.7695924456        5.4513816364
  C        34.4928266278       25.5101730946        2.8880802257
  C        34.4988563176       25.5192670912        1.4591196168
  C        34.0045323941       24.4257669703        0.6871278266
  C        40.6073598054       17.1032419400        0.7681963201
  C        40.5920137229       17.1267470729        3.5816200638
  C        28.7071347241       14.0934909998        5.8229804794
  C        28.0946656814       12.9512897987        5.0936583416
  C        28.8310625987       12.2626161835        4.1148323630
  C        28.2544925416       11.2060686560        3.4165402332
  C        26.9256974283       10.8048135082        3.6695207628
  C        26.2087255577       11.4797391122        4.6773048296
  C        26.7815313449       12.5401129608        5.3766220359
  C        26.2922903029        9.7119341839        2.8955042348
  C        26.2997809006        9.7169261211        1.4715466877
  C        26.8011398489       10.8219608301        0.7170750828
  C        18.1350854311        3.1802571766       10.3169984484
  C        17.4052742410        4.2775686097       11.0154060501
  C        16.3910220302        3.9989358606       11.9444218723
  C        15.7430174783        5.0387463593       12.6079518321
  C        16.0931579318        6.3826872028       12.3668971886
  C        17.0807493537        6.6523975272       11.4013242620
  C        17.7301382947        5.6152278580       10.7362903868
  C        15.4690342918        7.4904081742       13.1300244745
  C        15.4850993186        7.4901456384       14.5517418481
  C        16.1869905186        6.4967740376       15.3049393630
  C        42.9459378825       31.8593065296       10.0727861968
  C        43.6463412682       30.7718542805       10.8167119137
  C        44.5916197316       31.0931055865       11.8030794559
  C        45.1972036028       30.0875126581       12.5507145628
  C        44.8709961064       28.7344039315       12.3356127967
  C        43.9453476723       28.4201888883       11.3221868883
  C        43.3365005191       29.4253620749       10.5742537074
  C        45.4885087404       27.6551499247       13.1388079316
  C        45.4927748772       27.6809775372       14.5605276392
  C        44.8053100390       28.6887680495       15.3070955204
  C        14.8564524178        8.5628375431       15.2641178618
  C        14.8733154394        8.5620051913       12.4514899072
  C        42.9462394000       31.9612675773        5.8090713562
  C        43.6913853272       30.8853493733        5.0955378721
  C        44.6555807687       31.1912524749        4.1228078003
  C        45.2769557855       30.1716586200        3.4050532495
  C        44.9536144887       28.8212724143        3.6430821472
  C        44.0204171774       28.5236681264        4.6541612915
  C        43.3921826451       29.5404279262        5.3663267496
  C        45.5626285117       27.7239679920        2.8578338019
  C        45.5331581463       27.7174738269        1.4364960988
  C        44.8265163277       28.7074184936        0.6835242006
  C        35.1102565452       26.6153175910        0.7611234212
  C        35.1231596896       26.5595148061        3.5749509985
  C        18.1485430369        3.2464329748        5.7068987975
  C        17.4296885678        4.3434612890        4.9976696785
  C        16.4156286473        4.0521065308        4.0729057994
  C        15.7672474347        5.0826705861        3.3974291644
  C        16.1206558793        6.4280685974        3.6211653905
  C        17.1106792458        6.7114955559        4.5798366710
  C        17.7583992889        5.6826338780        5.2596559058
  C        15.4903225201        7.5238013400        2.8486501361
  C        15.4965851764        7.5073523222        1.4275005408
  C        16.1934358314        6.5057381748        0.6807536430
  H        10.6728074213       12.4672426587        3.9033292150
  H        11.6948027295       10.5522042541        2.6613097162
  H        15.3906743464       11.1670256279        4.7735745559
  H        14.3500899051       13.0702116144        6.0188068685
  H        13.3768711739       11.6313687553        1.2012070406
  H        50.3225095623       22.7488181980        3.9874216893
  H        49.3191488307       24.6232232494        2.6811089930
  H        45.6410756146       24.1598470915        4.8625902584
  H        46.6620292299       22.2886663088        6.1705791824
  H        47.6288941704       23.5756517332        1.2463438951
  H        14.8708861140        8.5876437176        4.6084454728
  H        50.2868960136       22.7024278316       12.0603261557
  H        49.2687532160       24.5752676941       13.3606368682
  H        45.6100298301       24.1083800937       11.1466381901
  H        46.6522012903       22.2528999445        9.8325527564
  H        47.6069346528       23.5515315840       14.7969555689
  H        40.6434337144       17.1824274446       11.4202010459
  H        48.6864005869       14.0953780336        7.7995114874
  H        10.6811321037       12.4677104306       12.0939923789
  H        11.6889064108       10.5254846496       13.2979236324
  H        15.3919846419       11.1568721953       11.2042688124
  H        14.3636767075       13.0858863855        9.9890094692
  H        13.3761486340       11.6221046182       14.7528961262
  H        47.9291866706       14.2216739160        9.7101127229
  H        47.7806142257       14.3779319148        6.4945509036
  H        49.0816245689       18.5513934098       10.8667111318
  H        10.4148079890       14.1345130953        7.9987145129
  H        24.4883188051        3.0393807074        3.9188763120
  H        25.6225184775        4.9042823347        2.6963635728
  H        23.2278702015        7.7585542315        4.8460693966
  H        22.1134383216        5.8834451148        6.0706730315
  H        23.8209874272        5.7976695177        1.2640327421
  H        36.3564087855       32.1597370398        3.9762589919
  H        35.2333051082       30.3228206858        2.7187754677
  H        37.5048958803       27.4229656650        4.9395442894
  H        38.6085341418       29.2722455612        6.2062067009
  H        37.0063767908       29.4256085350        1.3169665066
  H        25.6968105978        8.6365604980        4.6579914801
  H        36.4821291694       32.2366752598       12.1444591220
  H        35.3855877935       30.4212452713       13.4491100580
  H        37.5300824960       27.4846342122       11.1482961627
  H        38.6046099220       29.3118556768        9.8346439282
  H        37.0377161222       29.4581792538       14.8710116902
  H        46.1087055027       26.5870286404       11.3855637381
  H        44.6674885195       35.1156574155        7.8139985807
  H        24.4439739404        3.0414271456       12.0853892761
  H        25.5810052959        4.8773498186       13.3333669331
  H        23.1801877190        7.7705462298       11.2440208426
  H        22.0556002554        5.9219499071        9.9959628087
  H        23.8127869837        5.7939233524       14.8155014120
  H        44.9509705714       34.3880657995        9.6939135268
  H        44.8984316866       34.2054726166        6.4908130838
  H        40.6638638708       33.2071215995       10.8522358448
  H        23.1506639035        1.9569300495        8.0052921405
  H        25.8154309331       19.6594244458        3.8563511619
  H        23.6500326939       19.7025717851        2.6377824618
  H        22.3158442431       16.2841689745        4.8832218871
  H        24.4973301526       16.2352237553        6.0886675789
  H        23.7148731546       17.6950101197        1.2387192850
  H        35.1230674142       15.4719467654        3.9826239718
  H        37.2382634980       15.4293377122        2.6667986666
  H        38.7072698890       18.7761622311        4.9346344818
  H        36.5844100340       18.8107939884        6.2486153065
  H        37.2178328911       17.3799796557        1.2509696702
  H        20.3406975379       17.9689709605        4.6562561836
  H        35.1860840322       15.4443074859       12.1334004799
  H        37.3105903487       15.4297370874       13.4165644321
  H        38.7223604623       18.7836018828       11.1185557305
  H        36.5746623966       18.8141442260        9.8545494365
  H        37.2356494800       17.3943742082       14.8009290953
  H        35.2072066560       26.6605055021       11.4123523387
  H        28.4993474863       21.1174586461        7.9039829520
  H        25.8081354879       19.6011630208       12.1914088192
  H        23.6202696587       19.6882264750       13.3946573910
  H        22.2696968821       16.2570287526       11.1803622806
  H        24.4546469045       16.1879620801        9.9728467695
  H        23.7027752481       17.6889654920       14.7915158722
  H        28.8867738109       21.7469088548        9.7509527350
  H        29.1531461729       21.7304099816        6.5159836382
  H        31.9852354608       18.5819119069       11.1000329703
  H        27.3450164367       19.0803472238        8.0654164376
  H        14.8485206945       19.6622135508       12.1235763831
  H        17.0149640421       19.7230901626       13.3592491061
  H        18.3178281935       16.2183669087       11.2334154032
  H        16.1464068753       16.1730287113        9.9981831601
  H        16.9272982138       17.7321735254       14.8205229012
  H        46.0857416822       15.4700672930       12.0970895793
  H        43.9629316226       15.4368384552       13.4047003800
  H        42.5513726705       18.8375068359       11.1798457622
  H        44.6750862285       18.8468699611        9.8637659523
  H        44.0105641883       17.3644932118       14.8440807226
  H        20.3017223942       17.9518285156       11.4028026688
  H        46.0533003662       15.4123284693        4.0029081666
  H        43.9233213780       15.3565633741        2.7098015350
  H        42.4923873788       18.7495288085        4.9336621511
  H        44.6315164654       18.7957645789        6.2229554315
  H        43.9958541745       17.3273028006        1.2921483728
  H        46.1981807202       26.6821297537        4.6233541369
  H        52.7405160330       21.0621796927        8.1944616464
  H        14.8677835001       19.6734501211        3.8942037859
  H        17.0629678889       19.7514024729        2.7050774162
  H        18.3309255448       16.2315077810        4.8262713745
  H        16.1372220838       16.1780499134        6.0251481819
  H        16.9400894810       17.7377959034        1.2680941290
  H        52.3194896862       21.6724060134        6.2953733768
  H        52.0104387174       21.7000043083        9.4949521130
  H        49.0648260489       18.6068319291        5.2054280532
  H        13.2472494683       19.0165456282        7.9763366633
  H        29.9607236654       12.4794611591       12.2348247559
  H        28.8994409271       10.5561609032       13.4236414225
  H        25.2753619825       11.1782237472       11.1932778852
  H        26.3391303565       13.1098646178       10.0222337685
  H        27.1727097226       11.6798729434       14.8004439545
  H        30.9877260944       22.8536973102       11.9470705472
  H        32.0144802784       24.7006464952       13.2608682982
  H        35.7481102449       24.0675478611       11.2249925483
  H        34.7153336250       22.2021998553        9.9215983844
  H        33.6715856777       23.5734381679       14.7565636026
  H        25.7233153080        8.6014723778       11.4069241988
  H        30.9292035029       22.6458109348        3.9024455443
  H        31.9665436688       24.4882141362        2.6009404127
  H        35.5491472910       24.1323869076        4.9607035913
  H        34.5120056617       22.2713715942        6.2460638719
  H        33.6350437086       23.5460700869        1.2058658300
  H        40.5872808299       17.0932967398        4.6695922289
  H        32.5294033605       14.1344010778        8.2690374829
  H        29.8567132262       12.5696324908        3.9226023148
  H        28.8340649398       10.6683941506        2.6693056052
  H        25.1814861743       11.1847034541        4.8815112329
  H        26.2195975795       13.0755159983        6.1383580344
  H        27.1485471052       11.7028272867        1.2489115349
  H        33.2793866894       14.1512163561        6.4060602285
  H        33.4020845875       14.3996603158        9.6277855222
  H        32.1898176386       18.5764816146        5.2187840168
  H        30.1976550969       14.1486822693        8.0847855613
  H        16.1203599734        2.9622596467       12.1319570674
  H        14.9547468306        4.8190093951       13.3248014839
  H        17.3613835427        7.6854841074       11.2067513729
  H        18.5106824138        5.8179539483       10.0068691949
  H        16.7534063598        5.7393170377       14.7714648792
  H        44.8276707044       32.1401908744       11.9774909561
  H        45.9366804028       30.3411095456       13.3070808374
  H        43.6825863365       27.3781427885       11.1520347501
  H        42.5997265087       29.1900542993        9.8097301885
  H        44.2293215446       29.4360700998       14.7688195424
  H        14.8486375707        8.5448242313       11.3632950200
  H        44.8987030788       32.2339613428        3.9310296056
  H        46.0233817698       30.4127642598        2.6513159958
  H        43.7635406284       27.4839426667        4.8458598156
  H        42.6456709014       29.3176126481        6.1247625601
  H        44.2673180916       29.4698547336        1.2180319051
  H        35.0900865918       26.5628193367        4.6630081442
  H        36.6049869747       35.1331766533        8.1811450601
  H        16.1455354923        3.0124018224        3.9023275102
  H        14.9757959452        4.8555927169        2.6864449484
  H        17.3928420025        7.7471272055        4.7578891235
  H        18.5400764809        5.8930469065        5.9857186678
  H        16.7648664070        5.7554668635        1.2191471593
  H        36.2803974722       34.4797802558        6.2738190790
  H        36.3836186908       34.2076969850        9.5003750098
  H        40.5769098003       33.1999333983        5.1553117871
  H        17.4713621637        1.9457061466        7.9738167207
  H        29.1688732951       19.3237547703       12.8289112183
  H        29.9179797399       19.4781636474        3.1582992943
  H        32.1058333338       15.9444524272        3.3780622621
  H        31.0147334116       15.3093487667       13.2749474707
  H        28.6092335869       17.7647508871       14.1065931052
  H        29.9036718370       14.3352218203       13.9798257218
  H        31.5066121868       19.5758121476        1.6624105899
  H        32.5683182158       17.0345749890        1.4090215152
  H        28.5861211535       16.5404272295        0.4874039039
  H        32.7373297386       18.0187701752       15.1041906103
  H        18.8534746796        0.8694305248       12.3345798530
  H        40.5277658077       35.2294053865        3.9525443799
  H        42.3209767093       34.4157368991        3.5931434662
  H        22.0879804423        0.6924186012       12.3507335585
  H        11.5974921316       18.7119100404       12.3814610826
  H        52.2650965115       18.4301984625        3.6788656948
  H        49.2537931662       16.4799956285        3.5867883796
  H        10.1506558142       15.7983983446       12.2920981546
  H        50.8495503569       17.6923763112        3.9545137054
  H        10.0456692544       17.3946302576       12.0519562123
  H        20.2139046255        0.0019159688       12.0422759155
  H        39.1831494339       36.1244265510        3.6871331381
 Ni        30.1822434794       17.2813915696        2.3320094501
 Ni        31.0791449404       15.8775067311       -0.0830924887
 Ni        30.0105171762       18.8048918766       -0.1632441528
 Ni        31.1157585160       17.8143773181       13.3217125273
  O        10.6498955997       14.3650568268        5.4855881000
  O        12.6131986836       14.6574286971        6.5838765422
  O        49.1477674008       16.8459517307        7.9897603716
  O        50.3501547448       20.9364577576        5.6482784068
  O        48.3484620285       20.5935011373        6.6659734203
  O        11.0511736064       17.0539816515        6.5005719935
  O        50.3211366763       20.8818347151       10.4067967726
  O        48.3467629326       20.5868797926        9.3271056559
  O        49.5436658430       18.2485099746       10.0683326926
  O        12.3590116243       18.6245206599        7.9997057798
  O        48.6928895555       14.1485925961        6.7510284831
  O         8.2094642121       14.2104611688        9.3228493243
  O        10.7352059684       14.5066680732       10.6644767234
  O        12.5718281969       14.5826775298        9.3285548466
  O        22.8449548163        2.0443698928        5.4868780140
  O        21.6051631089        3.5924856895        6.5905068882
  O        42.0575611551       34.1367585275        7.9790649311
  O        37.9811390491       33.1327582664        5.5719166721
  O        39.2191712427       31.5756128800        6.6674502526
  O        20.3080800647        1.0392537062        6.5019638111
  O        38.0246406351       33.1853487674       10.4156889702
  O        39.2187212364       31.5834419863        9.3270848927
  O        40.6522288984       33.7690558040       10.0604002019
  O        18.2563256519        1.3749251651        7.9968031175
  O        44.6222364288       35.1004306859        6.7586603531
  O        24.2053622272       -0.0000059531        9.3208983955
  O        22.7536685704        2.0587842851       10.5848185936
  O        21.6255781210        3.5977800104        9.3451851020
  O        27.5404332885       18.6893288481        5.4125205794
  O        26.7278761428       16.9884547666        6.6675752059
  O        30.6327075864       19.3515465450        8.0712257252
  O        33.5462241678       16.3311773166        5.6648335027
  O        34.2644560417       18.1834257713        6.7501052345
  O        29.5713561709       17.0611911474        6.5813281474
  O        33.5411189169       16.3329951509       10.4945068445
  O        34.2566300990       18.1869539915        9.4020319223
  O        31.5623350270       18.3135666705       10.2438361529
  O        30.2967216059       15.1148661742        8.0941735042
  O        28.5479544842       21.0326432461        6.8286348789
  O        28.5050686439       20.9661976412        9.3163074063
  O        27.5039158772       18.6124669266       10.6746759429
  O        26.6909073121       16.9186670632        9.4041292223
  O        13.1483457824       18.6935146264       10.5868297344
  O        13.9194279478       16.9161531523        9.4048283839
  O        50.5955539491       19.3501076825        8.0206216007
  O        47.6810301476       16.3278658122       10.4178677243
  O        46.9520693826       18.1762809124        9.3243125167
  O        11.0691025530       17.0154948599        9.4897617132
  O        47.6761811550       16.3353892961        5.6530749066
  O        46.9272160861       18.2356448558        6.6645971606
  O        49.5687644470       18.3178793235        5.9822800833
  O        10.3184646401       15.1004304410        7.9970945177
  O        52.6706288400       21.0280658592        9.2418223866
  O        12.1467882109       20.8913954990        6.6732305572
  O        13.1067898106       18.6140405861        5.3256489452
  O        13.9569048428       16.9870800636        6.6648079273
  O        29.9594117358       14.5139611968       10.7490457145
  O        28.0781519141       14.6572533521        9.4862936840
  O        32.0760268024       16.8596375159        8.1015262614
  O        30.9730876682       20.9564247809       10.4023328865
  O        32.9477085224       20.5935262658        9.3342533804
  O        29.5539912067       17.0781107452        9.5783359230
  O        30.8389063832       20.8748275595        5.6558498793
  O        32.8371721494       20.5170189625        6.6695846364
  O        31.6035735979       18.2342660314        5.9107645860
  O        28.2315611209       18.6830585336        8.0690123427
  O        32.4901716962       14.2158413944        9.3355891576
  O        32.4093859034       14.2070413563        6.8352873990
  O        29.8933730847       14.4400041042        5.5059935175
  O        27.9995930652       14.6496231624        6.7433644098
  O        17.8891023436        1.9663070970       10.6628885109
  O        18.9562610212        3.5269882426        9.4080849012
  O        39.1685828016       34.1384575216        7.9970578564
  O        43.2802826038       33.0590334770       10.3316383366
  O        42.0347550160       31.5064065758        9.2415707879
  O        20.3173059786        1.0361036801        9.4807799116
  O        43.2760958941       33.1825603925        5.5749824759
  O        42.0053159269       31.5840699504        6.5831302240
  O        40.5790892776       33.7749071686        5.9357991712
  O        22.3670364375        1.3845644226        7.9981615869
  O        36.6725747873       35.0993734918        9.2335553364
  O        16.4454424831        0.0634844535        6.6679521998
  O        17.9363774789        2.0431862578        5.3264272772
  O        18.9190874634        3.5930071861        6.6661265522
  O        29.5189373610       19.0541488913        3.9880339146
  O        29.3985398408       19.8613699215       11.9842778432
  O        31.5223986508       15.7483524468        4.1583111987
  O        31.5937069503       16.1928321448       12.1679592265
  O        31.9325853398       16.3417389723        1.6596980111
  O        29.4764580146       16.9296519498        0.4928625815
  O        30.6341687483       14.9454733107       14.1709502858
  O        31.8086635192       17.7249219942       15.1522719570
  O        30.5853376453       19.2676911803        1.6598154138
  O        29.2735957393       18.4729212268       14.0678228497
  O        39.4567520428       35.2437549545        4.0020483421
  O        19.1411494559        0.0045574717       11.9907821479
  O        41.9698483528       35.1727840532        4.0873412364
  O        21.6915523112       -0.0693518654       11.8958041026
  O        51.3649485047       18.6142772430        4.0054455186
  O        10.7511685224       18.7473251456       11.9049905587
  O        50.0796720626       16.4128408357        4.0914794997
  O         9.5243830476       16.4831064420       11.9912414634
 Zr         9.2943370237       16.0534409066        6.1820985071
 Zr        49.8337513404       16.0074947656        9.7465836303
 Zr        22.0719265034        0.0278521229        6.1898603926
 Zr        42.4597483559       35.1516756449        9.8004784693
 Zr        29.5962814900       19.1020251491        6.3201005095
 Zr        29.5198258899       19.1994241963        9.8294264887
 Zr        11.0368091706       19.0516876694        9.8273757094
 Zr        11.0422408024       19.1547099081        6.2517393667
 Zr        31.3199181402       16.0971814573        9.8904322418
 Zr        31.3942108637       15.9731736396        6.3360379325
 Zr        18.5997254227       -0.0048398061        9.7639582456
 Zr        18.5057506251       -0.0107960897        6.2133220701
 Zr        12.3001739752       16.3241215835        7.9903996832
 Zr        48.6131891592       18.8321049603        8.0098767468
 Zr        20.3141134840        2.4709054489        7.9915533889
 Zr        40.6406638305       32.6838421399        7.9787834159
 Zr        28.3154775169       16.3373903412        8.0693571355
 Zr        32.6354946028       18.8342106014        8.0769344060
  H        32.0188472032       18.9162157937       12.7183002095
  H        30.2315472503       20.3411451228       12.1629163800
  H        32.5746044127       16.1960840393       12.1634955267
  H        29.4285207378       16.1283752666        3.0363020066
  H        30.5957751115       15.7134370773        3.7228263865
  H        28.5427493275       18.9626479131        3.8897037529
