     576
 i =      310, E =     -4779.9775706619
  C        11.8581800522       14.0539905951        5.7416626681
  C        12.4558922162       12.8907068374        5.0230885675
  C        11.7045616657       12.1725602174        4.0806694897
  C        12.2808572370       11.1102998877        3.3882265681
  C        13.6209985274       10.7396531150        3.6168734668
  C        14.3538353018       11.4424967856        4.5910808471
  C        13.7809639723       12.5075368875        5.2825638684
  C        14.2606747844        9.6490263893        2.8435422766
  C        14.2567252999        9.6571455492        1.4218247255
  C        13.7440594067       10.7594994946        0.6678843763
  C        49.1264940685       21.2331787684        5.8799448524
  C        48.5496386537       22.4010731517        5.1526167140
  C        49.2997718822       23.0686594437        4.1719164428
  C        48.7327943931       24.1076940645        3.4386180949
  C        47.4021378975       24.5090319111        3.6670331690
  C        46.6709291116       23.8596660922        4.6800107742
  C        47.2334145285       22.8147427959        5.4093327086
  C        46.7720117214       25.5867655428        2.8697688523
  C        46.7612538312       25.5573716474        1.4479536834
  C        47.2609668790       24.4421790140        0.7045290089
  C        14.8606146619        8.5706986593        0.7086584322
  C        14.8907583572        8.5966845431        3.5202250600
  C        49.1130089844       21.2032222208       10.1452060273
  C        48.5275860466       22.3645449451       10.8726578693
  C        49.2669716870       23.0255618504       11.8652217234
  C        48.6906145382       24.0600693016       12.5967267417
  C        47.3601124616       24.4566266509       12.3586757551
  C        46.6394491174       23.8112273818       11.3356711760
  C        47.2129709607       22.7752258421       10.6039725473
  C        46.7217541629       25.5316742317       13.1496343258
  C        46.7336040331       25.5282303859       14.5713820670
  C        47.2487416719       24.4288970619       15.3277323479
  C        40.6149631968       17.0659915252       15.3163127409
  C        40.6345569693       17.1193903426       12.5027971881
  C        11.8825668648       14.0868300089       10.2852938888
  C        12.4720140623       12.9105602025       10.9896656420
  C        11.7145922899       12.1776855008       11.9159948661
  C        12.2810639889       11.0951488467       12.5845063312
  C        13.6196840214       10.7210723091       12.3523862387
  C        14.3575702729       11.4363207657       11.3913213242
  C        13.7922450382       12.5176281937       10.7186839833
  C        14.2533608142        9.6243167950       13.1227951354
  C        14.2528405724        9.6446202931       14.5446433472
  C        13.7434970945       10.7538874511       15.2916234245
  C        22.5097983376        3.2434856822        5.7535210976
  C        23.2219432224        4.3504297034        5.0529632928
  C        24.2195659172        4.0724966033        4.1070774380
  C        24.8436196361        5.1134393277        3.4246959762
  C        24.4858023196        6.4543630127        3.6686726932
  C        23.5156870982        6.7238306075        4.6511861560
  C        22.8871467526        5.6845144908        5.3318577948
  C        25.0901915899        7.5612634040        2.8939932589
  C        25.0735596608        7.5490859118        1.4706531842
  C        24.3746493698        6.5497449372        0.7243635890
  C        38.2975799576       31.9281107342        5.8530714488
  C        37.5575408425       30.8399079925        5.1559030307
  C        36.5992915953       31.1433471836        4.1757365578
  C        35.9747766767       30.1229591486        3.4652067460
  C        36.2907882387       28.7715039796        3.7112833293
  C        37.2162370528       28.4765907486        4.7311447905
  C        37.8459189625       29.4957445576        5.4405356225
  C        35.6860618209       27.6827900964        2.9137361698
  C        35.7091966469       27.7076799950        1.4873263167
  C        36.4223183576       28.7033478738        0.7560023887
  C        25.7034307750        8.6156233579        0.7512058159
  C        25.6776378933        8.6403935489        3.5649793299
  C        38.3285756345       31.9607177976       10.1594805910
  C        37.6087350984       30.8920206135       10.9050926324
  C        36.6931013170       31.2044981751       11.9229804788
  C        36.0839358166       30.1900565134       12.6578213606
  C        36.3706098972       28.8333600066       12.3993523818
  C        37.2639170271       28.5321042434       11.3510421449
  C        37.8775444822       29.5429932220       10.6188933810
  C        35.7565675732       27.7383634040       13.1815602278
  C        35.7453854658       27.7359198392       14.6084156136
  C        36.4388767951       28.7178876635       15.3761116869
  C        46.1357681166       26.6210127005       15.2814639270
  C        46.0876478008       26.5799233365       12.4735870325
  C        22.4609975770        3.2549969359       10.2568725208
  C        23.1573885557        4.3635293361       10.9793770593
  C        24.1609919953        4.0759703641       11.9181194679
  C        24.7909182320        5.1048982159       12.6140676803
  C        24.4379885651        6.4513100697       12.3931451961
  C        23.4570871907        6.7321451113       11.4230779996
  C        22.8222614970        5.7032233282       10.7280474969
  C        25.0703424307        7.5482217115       13.1671048958
  C        25.0637970643        7.5419731253       14.5913671209
  C        24.3678435901        6.5476248692       15.3462889006
  C        26.6204862730       17.8227953973        5.7741266248
  C        25.3316308393       17.8762596959        5.0513918076
  C        25.0678206008       18.8595283913        4.0783093753
  C        23.8568210776       18.8734166216        3.3944153418
  C        22.8527370936       17.9158109933        3.6620800035
  C        23.1062800464       16.9645570086        4.6729261285
  C        24.3235025608       16.9368556986        5.3464050934
  C        21.5836288563       17.8971284570        2.9018366142
  C        21.5827655829       17.8942693663        1.4755463972
  C        22.7840435359       17.7690513676        0.7134246634
  C        34.4295831724       17.2192765358        5.9196332376
  C        35.7139158730       17.1453593989        5.1903011410
  C        35.9032803530       16.1932643824        4.1702738850
  C        37.0793289390       16.1764950936        3.4301404611
  C        38.1172376432       17.0997751411        3.6898498993
  C        37.9347957399       18.0179370965        4.7467598477
  C        36.7520172574       18.0497590774        5.4772917958
  C        39.3635559657       17.1091182538        2.9019463966
  C        39.3579240754       17.0976555267        1.4737665803
  C        38.1573236374       17.2230370315        0.7152355547
  C        20.3356464064       17.9184247124        0.7675185606
  C        20.3563482950       17.8823812173        3.5835044851
  C        34.4517723274       17.2331072506       10.1891700682
  C        35.7469207058       17.1241356234       10.8959393482
  C        35.9368928394       16.1679358854       11.9094116374
  C        37.1224379428       16.1409898569       12.6351318718
  C        38.1601497883       17.0612397994       12.3690557333
  C        37.9789957280       17.9784997730       11.3126335892
  C        36.7899636701       18.0180061972       10.5944496682
  C        39.4006757883       17.0844525244       13.1648700594
  C        39.3769209831       17.0867569188       14.5919649039
  C        38.1660146668       17.2160066568       15.3342749502
  C        35.0972952233       26.6623940021       15.3082786334
  C        35.1756846299       26.6648490884       12.4958785052
  C        26.5669733961       17.8293465942       10.3247402318
  C        25.2556061878       17.8781092273       11.0243968203
  C        24.9979565009       18.8712968466       11.9835922793
  C        23.7816727558       18.8939994002       12.6580354898
  C        22.7887779453       17.9261838992       12.3979017082
  C        23.0399624073       16.9627499556       11.4027077372
  C        24.2579149231       16.9351439695       10.7279089037
  C        21.5284728628       17.9031557613       13.1711749854
  C        21.5550540121       17.8942293878       14.5949839355
  C        22.7710036594       17.7695702187       15.3349735019
  C        14.0463811423       17.8290844727       10.2883268809
  C        15.3509148680       17.8864932300       11.0125170110
  C        15.6039020806       18.8820954348       11.9694481852
  C        16.8122682162       18.9010896807       12.6628620311
  C        17.8041204780       17.9284852449       12.4210112113
  C        17.5558516029       16.9583009283       11.4309824565
  C        16.3463299823       16.9338377779       10.7401307709
  C        19.0724245426       17.9089983049       13.1888293080
  C        19.0728521222       17.9063531591       14.6140779208
  C        17.8689469000       17.8037283331       15.3750382502
  C        46.8014298726       17.2163754932       10.1583950747
  C        45.5106243986       17.1470083672       10.8988930030
  C        45.3149545304       16.1805166381       11.8989043286
  C        44.1330146589       16.1561860250       12.6334009086
  C        43.1101539092       17.0957288337       12.3912137944
  C        43.3031880468       18.0391373563       11.3620158228
  C        44.4870538634       18.0693205004       10.6296297798
  C        41.8580712790       17.1010540669       13.1790626174
  C        41.8631328373       17.0900180911       14.6070864977
  C        43.0661341709       17.1945382517       15.3644140494
  C        20.3209677270       17.9175939572       15.3216034178
  C        20.2956423834       17.8861076184       12.5062830573
  C        46.7816695600       17.2301268385        5.8888891023
  C        45.4784300227       17.1213487043        5.1782111112
  C        45.2653472229       16.1362221633        4.2004897546
  C        44.0770734755       16.1106134127        3.4758489650
  C        43.0655035470       17.0645292824        3.7099301257
  C        43.2690575216       18.0160571565        4.7288145154
  C        44.4594687809       18.0500185438        5.4474548987
  C        41.8205265656       17.0879580845        2.9141216083
  C        41.8439072213       17.0813312932        1.4865991129
  C        43.0568954527       17.1872883266        0.7456171507
  C        46.1534456177       26.6373955650        0.7262270765
  C        46.1618295951       26.6557310450        3.5358709091
  C        14.0453061238       17.8290581751        5.7079463185
  C        15.3671305892       17.8951030550        5.0171962173
  C        15.6495757104       18.9066750602        4.0869580417
  C        16.8800558980       18.9340158362        3.4344022721
  C        17.8574240733       17.9491037683        3.6852479831
  C        17.5811208722       16.9661080726        4.6531747151
  C        16.3529068074       16.9384920382        5.3096723826
  C        19.1250960715       17.9162665734        2.9180505381
  C        19.1004205676       17.9093256008        1.4929239615
  C        17.8828096351       17.8049263033        0.7535670746
  C        28.8083400139       14.0905365317       10.3972693568
  C        28.2031827510       12.9149620045       11.0767448262
  C        28.9221393995       12.1871022201       12.0381160248
  C        28.3259808486       11.1103875451       12.6875964661
  C        26.9959075085       10.7357068134       12.4034793631
  C        26.3019668150       11.4418702609       11.4033084775
  C        26.8949425612       12.5189653248       10.7511697516
  C        26.3269913058        9.6585619400       13.1648578491
  C        26.3165495026        9.6847422041       14.5873603253
  C        26.8191102558       10.7963044189       15.3335593431
  C        32.1743352390       21.2588441864       10.1528700958
  C        32.7592544191       22.4262648188       10.8590978929
  C        32.0118509665       23.0939852083       11.8444424945
  C        32.5792087423       24.1317188794       12.5744586139
  C        33.9100543247       24.5372858844       12.3431127438
  C        34.6349753128       23.8926005178       11.3205413240
  C        34.0725013205       22.8469056590       10.5931069545
  C        34.5372285124       25.6050496266       13.1488705256
  C        34.5055280255       25.5813189885       14.5747190952
  C        33.9881834529       24.4724166078       15.3090476887
  C        25.7031538630        8.6085847037       15.3060390948
  C        25.6851089378        8.6103647208       12.4917876201
  C        32.0818485621       21.2137039151        5.8829368556
  C        32.6403793844       22.3747231815        5.1582876563
  C        31.9165134493       23.0143776286        4.1341240378
  C        32.4933533641       24.0439628418        3.3983250760
  C        33.8083669991       24.4850637975        3.6672354833
  C        34.5049616519       23.8711537626        4.7313543375
  C        33.9397399104       22.8285445639        5.4551401600
  C        34.4519367232       25.5574873720        2.8842082862
  C        34.4594117459       25.5589025902        1.4563194068
  C        33.9652950103       24.4624629815        0.6890780011
  C        40.6048281150       17.0664647670        0.7633638866
  C        40.5910365445       17.1302705127        3.5773763825
  C        28.7401438608       14.0602815216        5.8221655353
  C        28.1327194906       12.9226335102        5.0832769648
  C        28.8696306801       12.2043568073        4.1264059896
  C        28.2828557644       11.1556398334        3.4250092124
  C        26.9421065010       10.7855553653        3.6596696604
  C        26.2230648830       11.4855582251        4.6482699585
  C        26.8056961776       12.5408881457        5.3454622753
  C        26.3003971469        9.6973107883        2.8880852505
  C        26.3058509329        9.7033925715        1.4649341578
  C        26.8130342411       10.8058652493        0.7106576272
  C        18.1351075343        3.1803990609       10.3171156573
  C        17.4053807443        4.2777151654       11.0155230207
  C        16.3914124173        3.9991414650       11.9448606651
  C        15.7435638478        5.0390009492       12.6084479965
  C        16.0935203295        6.3829368192       12.3670615571
  C        17.0808373965        6.6525801270       11.4011843531
  C        17.7300498015        5.6153570441       10.7360865564
  C        15.4695416302        7.4907206565       13.1301559786
  C        15.4854894312        7.4903909805       14.5518670201
  C        16.1873858196        6.4970647495       15.3051261064
  C        42.9458776734       31.8592316467       10.0728359030
  C        43.6462128821       30.7718173207       10.8167875887
  C        44.5913716624       31.0931083137       11.8032608998
  C        45.1970095260       30.0875514950       12.5508782981
  C        44.8710456524       28.7344003596       12.3356183433
  C        43.9455481363       28.4201450408       11.3220609260
  C        43.3366473923       29.4252933596       10.5741428994
  C        45.4886112625       27.6551822047       13.1388037479
  C        45.4928946305       27.6810256039       14.5605236130
  C        44.8054425355       28.6887873328       15.3071261130
  C        14.8568447388        8.5630985442       15.2642084626
  C        14.8738542934        8.5623282096       12.4515929907
  C        42.9463489990       31.9611234921        5.8091835438
  C        43.6915572036       30.8852559045        5.0957326124
  C        44.6554251326       31.1912022088        4.1226782634
  C        45.2768159999       30.1716146751        3.4049492036
  C        44.9537796296       28.8211735997        3.6431664883
  C        44.0210017672       28.5235830334        4.6546540988
  C        43.3927066030       29.5403084307        5.3668159983
  C        45.5627581303       27.7238983361        2.8578654700
  C        45.5333023721       27.7174598801        1.4365203663
  C        44.8266197339       28.7073739984        0.6835542874
  C        35.0761794469       26.6493900734        0.7550773648
  C        35.0859832243       26.6042266373        3.5688599765
  C        18.1482395951        3.2465790026        5.7068917866
  C        17.4292067426        4.3435476576        4.9978601074
  C        16.4155337886        4.0521147928        4.0726938806
  C        15.7671683485        5.0826666379        3.3972091182
  C        16.1201480430        6.4281115146        3.6213713698
  C        17.1097217858        6.7115778100        4.5805005435
  C        17.7574411205        5.6827441177        5.2603389047
  C        15.4900227778        7.5238730042        2.8487826564
  C        15.4965557417        7.5074723373        1.4276391525
  C        16.1936117576        6.5059608705        0.6809400322
  H        10.6727661403       12.4675998049        3.9030674834
  H        11.6947692624       10.5524924213        2.6610036622
  H        15.3905514292       11.1671652763        4.7734901122
  H        14.3499073776       13.0703982776        6.0186954770
  H        13.3772039039       11.6316846168        1.2012236519
  H        50.3225159834       22.7485993764        3.9874180314
  H        49.3191967327       24.6229907430        2.6810098420
  H        45.6411442234       24.1597835800        4.8625858579
  H        46.6621233169       22.2886766175        6.1706641945
  H        47.6288586586       23.5755417314        1.2462495689
  H        14.8702386680        8.5876411940        4.6085179713
  H        50.2870393719       22.7026642449       12.0599289696
  H        49.2689216793       24.5755378335       13.3602778381
  H        45.6097708539       24.1078564991       11.1471540936
  H        46.6518376756       22.2522475321        9.8331783407
  H        47.6069293951       23.5515224801       14.7968423035
  H        40.6426950061       17.0935734000       11.4146583294
  H        48.6865523885       14.0954932134        7.7997091992
  H        10.6812863613       12.4673109809       12.0935783654
  H        11.6893160009       10.5251388199       13.2975534805
  H        15.3928831889       11.1581092068       11.2052193256
  H        14.3643178762       13.0870551128        9.9899745814
  H        13.3767655630       11.6224713153       14.7528461649
  H        47.9291531634       14.2227020733        9.7096274441
  H        47.7806277159       14.3787661175        6.4949198320
  H        49.0803001186       18.5507237758       10.8663112234
  H        10.4147527059       14.1346092181        7.9985640197
  H        24.4830649940        3.0343492657        3.9171543253
  H        25.6175332463        4.8978444345        2.6912197542
  H        23.2305618563        7.7558890988        4.8445207913
  H        22.1155899139        5.8820789394        6.0720120204
  H        23.8104714021        5.7944868147        1.2636877330
  H        36.3699843175       32.1867483759        3.9727095330
  H        35.2338910627       30.3628387316        2.7057801979
  H        37.4697677181       27.4371760041        4.9291371996
  H        38.5875329077       29.2739225036        6.2043059704
  H        36.9929771078       29.4472003280        1.3040335348
  H        25.7016668677        8.6277795603        4.6531959830
  H        36.4795769917       32.2497549905       12.1347053391
  H        35.3692243423       30.4408340156       13.4384526505
  H        37.5013741832       27.4907513935       11.1438637390
  H        38.5898989820       29.3117452637        9.8306385233
  H        37.0233086113       29.4720503850       14.8572083366
  H        46.1087115225       26.5869745572       11.3855427874
  H        44.6673829122       35.1156050825        7.8140455766
  H        24.4375865594        3.0371841975       12.0838850908
  H        25.5722580223        4.8744590271       13.3351875424
  H        23.1714623668        7.7668668290       11.2447926666
  H        22.0485990594        5.9168291093        9.9940855288
  H        23.7982054122        5.7911049776       14.8144219842
  H        44.9505728144       34.3875548914        9.6935495886
  H        44.8982399478       34.2052813444        6.4909132962
  H        40.6636450927       33.2068747805       10.8521162745
  H        23.1504520330        1.9565531890        8.0051642253
  H        25.8137360956       19.6249172339        3.8776659991
  H        23.6639569599       19.6425161776        2.6496083849
  H        22.3469581220       16.2174140312        4.8951628922
  H        24.5242409505       16.1819402685        6.1029049209
  H        23.7246573948       17.6362588574        1.2397368010
  H        35.1108092983       15.4735693776        3.9773648402
  H        37.2231126275       15.4314239834        2.6507096385
  H        38.7228985157       18.7375595936        4.9586205561
  H        36.6012924038       18.7829780469        6.2662481147
  H        37.2197401721       17.3687627230        1.2436070760
  H        20.3617875846       17.9099156644        4.6718973796
  H        35.1353171005       15.4645712534       12.1232183897
  H        37.2660709693       15.3982863106       13.4166746969
  H        38.7695105943       18.6939677123       11.0959714543
  H        36.6349576429       18.7532340745        9.8086113219
  H        37.2347833029       17.3534377643       14.7927862892
  H        35.1647513334       26.6873358665       11.4077288241
  H        28.4992835596       21.0926844565        7.9903578438
  H        25.7624494108       19.6197835383       12.1793865601
  H        23.5814391737       19.6676714674       13.3961010942
  H        22.2825439327       16.2100094974       11.1937275033
  H        24.4655138685       16.1759831358        9.9776473956
  H        23.7013006064       17.6381479434       14.7907791713
  H        29.0018465082       21.7247052877        9.7591987067
  H        29.1405323089       21.7524911795        6.6175787304
  H        32.0994589384       18.5888805375       10.9859555493
  H        27.4038513064       19.0776313237        8.0745056561
  H        14.8423015284       19.6363492632       12.1544616496
  H        17.0035580238       19.6790244438       13.3988947308
  H        18.3097518728       16.1984328824       11.2355286171
  H        16.1429931949       16.1704635578        9.9928461068
  H        16.9255626177       17.6895096023       14.8492291993
  H        46.1075599560       15.4618405577       12.0935275979
  H        43.9857890435       15.3991805203       13.4004873445
  H        42.5251803383       18.7749028302       11.1691567748
  H        44.6495225997       18.8148982124        9.8547012808
  H        44.0079608803       17.3169161649       14.8375960882
  H        20.2874141866       17.9153141267       11.4180601400
  H        46.0477883903       15.4050327509        4.0104307475
  H        43.9181332428       15.3464510758        2.7181941020
  H        42.4971762979       18.7592129521        4.9177827675
  H        44.6352861641       18.8069590310        6.2079073109
  H        43.9919363993       17.3029021741        1.2857310601
  H        46.1982761940       26.6819390115        4.6233372277
  H        52.7405911384       21.0620777563        8.1945039727
  H        14.8947560438       19.6654269617        3.8921097657
  H        17.0973086556       19.7216434217        2.7160999404
  H        18.3248367588       16.1976973625        4.8541390482
  H        16.1248222385       16.1665271232        6.0405807199
  H        16.9494918163       17.6919248677        1.2968468841
  H        52.3192392130       21.6720923712        6.2951551417
  H        52.0102731496       21.6998784222        9.4948399528
  H        49.0646748773       18.6066813167        5.2053693410
  H        13.2472770729       19.0158111350        7.9770399044
  H        29.9452588990       12.4805857469       12.2614229257
  H        28.8849368591       10.5439301956       13.4292191917
  H        25.2754867640       11.1626269605       11.1746801094
  H        26.3529413262       13.0852018077        9.9977906674
  H        27.1828885738       11.6650597917       14.7935740182
  H        30.9904046464       22.7725910303       12.0327644229
  H        31.9952522550       24.6467534421       13.3339489678
  H        35.6633463917       24.1948575287       11.1335223816
  H        34.6444613822       22.3246009484        9.8297191907
  H        33.6363331779       23.6023144873       14.7627528132
  H        25.7127961589        8.5911762612       11.4036782153
  H        30.9015297888       22.6870728700        3.9216069695
  H        31.9237410991       24.5331333507        2.6113238792
  H        35.5192735466       24.1968968956        4.9523771205
  H        34.4955962328       22.3327388467        6.2472941837
  H        33.5962492192       23.5838963864        1.2100354820
  H        40.5871992752       17.1089306560        4.6656643928
  H        32.5173007139       14.1252281683        8.3629599668
  H        29.9105202730       12.4679259946        3.9555039686
  H        28.8627481047       10.5972283761        2.6933403869
  H        25.1867329122       11.2135876922        4.8381690722
  H        26.2427963242       13.0970931546        6.0912772566
  H        27.1705957650       11.6820315485        1.2435505764
  H        33.3084779913       14.2113469514        6.4667923042
  H        33.4071216931       14.4275830076        9.6737746673
  H        32.2230329521       18.6124458511        5.1923130115
  H        30.2371383813       14.1931751527        8.1234369747
  H        16.1208972342        2.9624696529       12.1326257552
  H        14.9554702212        4.8193405082       13.3255118568
  H        17.3612987793        7.6856648283       11.2063339954
  H        18.5103469407        5.8180148265       10.0063805664
  H        16.7539397887        5.7396705984       14.7717075552
  H        44.8272017002       32.1402184856       11.9778047261
  H        45.9363366859       30.3411820167       13.3073702033
  H        43.6829448429       27.3780843062       11.1517875073
  H        42.5999750205       29.1899251968        9.8095416366
  H        44.2293720135       29.4360369931       14.7688780180
  H        14.8492629561        8.5451900714       11.3633926308
  H        44.8982799161       32.2339278581        3.9306780757
  H        46.0229372170       30.4127437419        2.6509233159
  H        43.7643579505       27.4838426219        4.8465699410
  H        42.6464673608       29.3174205631        6.1254918774
  H        44.2673466122       29.4697607654        1.2180418709
  H        35.0519576503       26.6115690957        4.6567871144
  H        36.6048609407       35.1335137252        8.1808870476
  H        16.1457966050        3.0123768615        3.9017590088
  H        14.9760371793        4.8555784637        2.6858732392
  H        17.3915011346        7.7472510569        4.7589327811
  H        18.5387841890        5.8931804277        5.9867544602
  H        16.7650306720        5.7557088521        1.2193713601
  H        36.2803352072       34.4800843353        6.2741892004
  H        36.3835291124       34.2078491707        9.5001196433
  H        40.5771780667       33.1999736452        5.1554999198
  H        17.4706541690        1.9460071269        7.9740729007
  H        29.0763857005       19.5154032350       12.5591451201
  H        29.6514348096       20.1207316650        3.3571133442
  H        31.1218120109       14.8106062676        3.9710469875
  H        30.9898453840       15.6359079235       12.4933066871
  H        27.8790138475       18.2293175454       14.6196353091
  H        29.1188776722       15.4026215046       14.4278501097
  H        31.5587711926       19.4240823666        1.7732717188
  H        32.1067491265       16.0283093645        2.1794198254
  H        28.8486881130       16.3925358210        0.9323457013
  H        32.2258226901       18.4468601880       14.7822963984
  H        18.8535564838        0.8694483477       12.3346663666
  H        40.5277287039       35.2294866969        3.9525829448
  H        42.3204025282       34.4150715288        3.5935752822
  H        22.0877356749        0.6926130545       12.3505848491
  H        11.5978285383       18.7114501194       12.3808663787
  H        52.2654058827       18.4302999300        3.6789755616
  H        49.2536253161       16.4805633701        3.5870890067
  H        10.1509419421       15.7986721962       12.2923189700
  H        50.8498498532       17.6923575499        3.9546834949
  H        10.0455137285       17.3947911172       12.0519888611
  H        20.2139120852        0.0018279149       12.0422541535
  H        39.1833234740       36.1245075346        3.6868540650
 Ni        29.8010034017       17.8025121769        2.8299302361
 Ni        31.0805120775       16.2657690675       -0.3270828488
 Ni        29.7577669606       18.7466158335        0.2457335809
 Ni        30.1383030146       17.5997951482       13.3233125164
  O        10.6497122928       14.3650353571        5.4855840491
  O        12.6131485882       14.6573492461        6.5838424924
  O        49.1476681922       16.8459647898        7.9897380401
  O        50.3501962058       20.9363791154        5.6482982666
  O        48.3484730176       20.5934861754        6.6660411967
  O        11.0512051953       17.0540360051        6.5004232330
  O        50.3210826337       20.8818695274       10.4067891507
  O        48.3467159034       20.5869113808        9.3270641308
  O        49.5434317474       18.2485625071       10.0682858048
  O        12.3587016241       18.6244988023        7.9997354760
  O        48.6928304434       14.1486686536        6.7510449378
  O         8.2095428467       14.2102305055        9.3226632469
  O        10.7353133410       14.5065854780       10.6644826568
  O        12.5718395569       14.5826518471        9.3285063416
  O        22.8446954320        2.0435550175        5.4871195009
  O        21.6047940240        3.5922133777        6.5905813686
  O        42.0575976258       34.1366161190        7.9790798216
  O        37.9815030539       33.1377894012        5.5729344418
  O        39.2182787626       31.5763889205        6.6667054147
  O        20.3081259355        1.0392496607        6.5018045037
  O        38.0251537932       33.1868908263       10.4148828924
  O        39.2186071920       31.5834855191        9.3270549104
  O        40.6521989517       33.7689174242       10.0603791109
  O        18.2556504025        1.3752887696        7.9968722020
  O        44.6223131686       35.1003649287        6.7586463794
  O        24.2054496838       -0.0000639784        9.3208894824
  O        22.7532449088        2.0576546617       10.5839178201
  O        21.6246345591        3.5965303407        9.3429690596
  O        27.5352626444       18.6958811585        5.4917603364
  O        26.7675743371       16.9227523564        6.6664192094
  O        30.6714481328       19.4081978895        8.0764389497
  O        33.5391856597       16.3311466836        5.6625594144
  O        34.2630765182       18.1871091687        6.7446416930
  O        29.5855799043       17.0601133858        6.5844466848
  O        33.5537193333       16.3419646176       10.4137544128
  O        34.3005197787       18.2424205544        9.4101588316
  O        31.6501579955       18.3240484153       10.1660871898
  O        30.3323541401       15.1599890988        8.1414695863
  O        28.5503594917       21.0342336614        6.9101277902
  O        28.5143095975       20.9581567961        9.4103248244
  O        27.4596323091       18.6790049102       10.6602379140
  O        26.6965335998       16.9299137947        9.4126102965
  O        13.1486013318       18.6930552212       10.5875044840
  O        13.9192970258       16.9161235060        9.4047259705
  O        50.5952820349       19.3499880330        8.0204648233
  O        47.6835444372       16.3269052883       10.4171911890
  O        46.9507776007       18.1754159537        9.3253868505
  O        11.0691866420       17.0156210482        9.4899265744
  O        47.6754577797       16.3356081425        5.6529783402
  O        46.9265832375       18.2357937390        6.6642430296
  O        49.5685268233       18.3177949901        5.9823024198
  O        10.3184151467       15.1005094179        7.9970606352
  O        52.6706188344       21.0280606747        9.2418130134
  O        12.1468075458       20.8912940734        6.6731337120
  O        13.1096669120       18.6132264990        5.3252809880
  O        13.9565690974       16.9862787716        6.6661954525
  O        29.9925937489       14.4503809514       10.7386668558
  O        28.0906100260       14.6543486410        9.4969471201
  O        32.1039628390       16.9124771304        8.0849575892
  O        30.9626507524       20.9543856373       10.4083428952
  O        32.9455898538       20.6092423008        9.3487210171
  O        29.5643996269       17.0888288874        9.5807318155
  O        30.8514100604       20.8842605356        5.6610068731
  O        32.8693199599       20.5755432230        6.6663250358
  O        31.5882857700       18.2349391639        5.8205628202
  O        28.2902740879       18.6797604521        8.0826701307
  O        32.4935590127       14.2124026357        9.4048956503
  O        32.4068345351       14.2149521750        6.8307731004
  O        29.9228448908       14.4381344412        5.5004118401
  O        28.0436359871       14.5883723846        6.7562538153
  O        17.8890772094        1.9664232061       10.6629031704
  O        18.9561377344        3.5270423845        9.4080600490
  O        39.1686938302       34.1386527152        7.9971411550
  O        43.2802768704       33.0590063712       10.3316034728
  O        42.0347194116       31.5064172964        9.2415748732
  O        20.3173038858        1.0361139511        9.4808080534
  O        43.2760956813       33.1824777290        5.5749649018
  O        42.0052743971       31.5840548255        6.5831163373
  O        40.5792148297       33.7749487504        5.9359796851
  O        22.3668273320        1.3842091114        7.9980012867
  O        36.6725214330       35.0995274684        9.2334417415
  O        16.4451490419        0.0639350342        6.6682312966
  O        17.9363386973        2.0433120088        5.3263597897
  O        18.9189486305        3.5930672339        6.6660262537
  O        29.2634297046       19.4908258319        4.0118688291
  O        29.7794616116       19.0557467264       12.0605585608
  O        31.4335869101       15.7428286740        3.9132238824
  O        31.2614376908       16.4722337052       12.0585017260
  O        32.4423051293       16.1943800349        1.2522152794
  O        29.6984379646       16.8605726802        1.0069374071
  O        30.0240689792       15.6845492737       14.2196932041
  O        31.3322811906       18.0868121691       14.9079816524
  O        30.5897984711       19.4165883817        1.8358212118
  O        28.7725569860       18.6047606150       14.5779466915
  O        39.4567712657       35.2438561700        4.0019346808
  O        19.1411489209        0.0045799049       11.9907924279
  O        41.9699035671       35.1727277642        4.0872927117
  O        21.6915301478       -0.0693483820       11.8958176135
  O        51.3652365704       18.6142991094        4.0056029271
  O        10.7511774145       18.7473346810       11.9049840972
  O        50.0796349851       16.4128789731        4.0915171063
  O         9.5244548782       16.4831152880       11.9913395202
 Zr         9.2941110981       16.0536098468        6.1821599410
 Zr        49.8338569246       16.0074322461        9.7467077288
 Zr        22.0718696904        0.0273919138        6.1899358879
 Zr        42.4596173891       35.1512361328        9.8003602415
 Zr        29.6176828126       19.1128427373        6.3761243930
 Zr        29.5682161686       19.1815937965        9.9119416639
 Zr        11.0366536777       19.0517905341        9.8273718320
 Zr        11.0423303775       19.1545419182        6.2519662060
 Zr        31.3355381731       16.1244811474        9.9407081833
 Zr        31.4246065035       16.0167899469        6.3721379086
 Zr        18.5996615206       -0.0044857314        9.7639277729
 Zr        18.5055600731       -0.0100888110        6.2134139832
 Zr        12.3000783775       16.3243005398        7.9904540131
 Zr        48.6124748928       18.8318130240        8.0102673450
 Zr        20.3132982613        2.4703706757        7.9911981791
 Zr        40.6406936693       32.6839132298        7.9787346932
 Zr        28.3367952073       16.3329493807        8.0924603430
 Zr        32.6654839553       18.8756532117        8.0908014117
  H        29.2264910961       16.6793398300        3.6986059567
  H        30.4821660977       16.2228339641        3.7428712808
  H        28.2727920806       19.4808897757        4.0531932072
  H        33.3396119945       15.8272723009        1.2074221987
