     578
 i =      270, E =     -4781.1419526908
  C        11.8588923448       14.0535789946        5.7415298434
  C        12.4564537601       12.8907009005        5.0231621603
  C        11.7044808465       12.1711841270        4.0821687763
  C        12.2808691275       11.1089576613        3.3898564342
  C        13.6217348415       10.7398665826        3.6169796499
  C        14.3553326986       11.4441736769        4.5895661445
  C        13.7824045833       12.5091852546        5.2810129423
  C        14.2611594368        9.6490583191        2.8436711480
  C        14.2563750466        9.6568504366        1.4219682712
  C        13.7431943386       10.7589981123        0.6681017640
  C        49.1270066487       21.2331100229        5.8796528899
  C        48.5502093797       22.4011977790        5.1525847575
  C        49.3002279927       23.0684883840        4.1715887909
  C        48.7333131141       24.1076716042        3.4384014351
  C        47.4028120733       24.5093472975        3.6670904241
  C        46.6718750114       23.8605071566        4.6806277455
  C        47.2343141760       22.8155693694        5.4099578342
  C        46.7724792206       25.5870039842        2.8698202147
  C        46.7612382133       25.5573340863        1.4480596418
  C        47.2611242626       24.4422011707        0.7045953741
  C        14.8602424248        8.5704719439        0.7087054537
  C        14.8919833902        8.5971690153        3.5203559305
  C        49.1132855287       21.2033581038       10.1453415622
  C        48.5278035062       22.3647454261       10.8726332586
  C        49.2670275318       23.0254626122       11.8655180684
  C        48.6906885809       24.0600139864       12.5970112915
  C        47.3602934466       24.4567624128       12.3587353449
  C        46.6398719094       23.8118765883       11.3352134407
  C        47.2134631834       22.7759851769       10.6034220066
  C        46.7218370129       25.5317718982       13.1497223948
  C        46.7333643093       25.5280707816       14.5714311933
  C        47.2487739983       24.4288587418       15.3278361417
  C        40.6323571735       17.1181539571       15.3257150580
  C        40.6557297745       17.1655944341       12.5170717024
  C        11.8832013103       14.0866525690       10.2855653029
  C        12.4726703266       12.9110015853       10.9899753161
  C        11.7149295839       12.1772493012       11.9154625036
  C        12.2816038343       11.0948290950       12.5838797985
  C        13.6207091567       10.7217792885       12.3526437771
  C        14.3590113308       11.4379980644       11.3925970255
  C        13.7934815739       12.5191256845       10.7198951481
  C        14.2541827417        9.6248356711       13.1229284522
  C        14.2527118831        9.6446272274       14.5447767097
  C        13.7427165936       10.7535324570       15.2918362507
  C        22.5130823694        3.2444836664        5.7536882519
  C        23.2302975680        4.3495412766        5.0559118057
  C        24.2256425318        4.0688732326        4.1080957505
  C        24.8541261307        5.1080826636        3.4267433535
  C        24.5036520249        6.4503503200        3.6740883099
  C        23.5376560846        6.7225002191        4.6601560348
  C        22.9038197361        5.6850242215        5.3388668353
  C        25.1062880972        7.5580576313        2.8981877810
  C        25.0698608172        7.5539943766        1.4757269224
  C        24.3685739496        6.5540593363        0.7315053169
  C        38.3036661928       31.9289238716        5.8485111537
  C        37.5770752160       30.8374309594        5.1378175341
  C        36.6179439814       31.1378697396        4.1586706027
  C        36.0050649828       30.1152081001        3.4396698606
  C        36.3363707966       28.7671360856        3.6788523797
  C        37.2657994882       28.4740365880        4.6944198936
  C        37.8829209691       29.4953974528        5.4118958721
  C        35.7383445595       27.6731747281        2.8809840618
  C        35.7729926619       27.6875544383        1.4597067130
  C        36.4785897884       28.6907925339        0.7231930037
  C        25.6820699508        8.6292805691        0.7552589395
  C        25.7068785994        8.6315121352        3.5679084365
  C        38.3295347265       31.9628600112       10.1555191475
  C        37.6095806749       30.8883376634       10.8966636092
  C        36.6824338346       31.1945113856       11.9042652024
  C        36.0759802390       30.1737855834       12.6336388193
  C        36.3829398920       28.8225326986       12.3778297484
  C        37.2871027201       28.5262617526       11.3397674173
  C        37.8957782656       29.5433977657       10.6120065511
  C        35.7796806523       27.7210170560       13.1613563423
  C        35.7948820862       27.7116950442       14.5830134792
  C        36.4888338041       28.7024059954       15.3464568242
  C        46.1353743758       26.6207243401       15.2815648732
  C        46.0879297002       26.5801621459       12.4736738726
  C        22.4602072354        3.2565347841       10.2584405962
  C        23.1517766141        4.3666178590       10.9824740020
  C        24.1510447604        4.0830359052       11.9270865610
  C        24.7755575398        5.1147823139       12.6240592443
  C        24.4217030168        6.4603466591       12.3983603070
  C        23.4460920032        6.7371645890       11.4216006604
  C        22.8163205261        5.7055752563       10.7261156292
  C        25.0475937410        7.5610937340       13.1726892065
  C        25.0396949898        7.5553569904       14.5967910382
  C        24.3524406912        6.5556375259       15.3534748521
  C        26.6260959239       17.8604367457        5.7829765051
  C        25.3192187862       17.9063970711        5.0575228760
  C        25.0718566571       18.8927661167        4.0900785763
  C        23.8574873109       18.9190263235        3.4065666649
  C        22.8560527533       17.9609172655        3.6655394089
  C        23.1022115075       16.9955823409        4.6603528498
  C        24.3174065521       16.9649819074        5.3432919060
  C        21.5822774906       17.9486679985        2.9015707476
  C        21.5802080269       17.9230910051        1.4786712360
  C        22.7849923477       17.7975412586        0.7170445237
  C        34.4511569538       17.1921376896        5.9546065278
  C        35.7371435711       17.1338648793        5.1981781971
  C        35.9428043164       16.1479345378        4.2199902453
  C        37.1168553479       16.1341791229        3.4704443467
  C        38.1187561261       17.1012967231        3.6843586191
  C        37.9155153079       18.0670183073        4.6878429096
  C        36.7375146224       18.0889027281        5.4307636530
  C        39.3731798640       17.1055380806        2.8973893891
  C        39.3709633690       17.1204725041        1.4763201613
  C        38.1646095704       17.2384554242        0.7168047195
  C        20.3325985734       17.9394305818        0.7713865411
  C        20.3572251358       17.9531690282        3.5841559921
  C        34.4776496576       17.2449476272       10.1797567588
  C        35.7813772313       17.1703094569       10.9027828894
  C        35.9994420103       16.1764524873       11.8685082618
  C        37.1844600261       16.1564801080       12.5985209354
  C        38.1786313185       17.1298559795       12.3815443978
  C        37.9671727077       18.0993092049       11.3838628995
  C        36.7801439431       18.1238965076       10.6564883034
  C        39.4238384317       17.1454675118       13.1793642934
  C        39.3968472259       17.1433065737       14.6001268016
  C        38.1765985429       17.2482605024       15.3400325888
  C        35.1675388997       26.6306553306       15.2862057126
  C        35.1877846315       26.6519877928       12.4774696499
  C        26.5670679859       17.8234748486       10.3228362511
  C        25.2532620376       17.8645632981       11.0322935509
  C        24.9696344187       18.8921145143       11.9448964617
  C        23.7537112407       18.9134748584       12.6225849115
  C        22.7893794107       17.9090943939       12.4065309993
  C        23.0659350740       16.9052591751       11.4613330690
  C        24.2841452886       16.8806634525       10.7844491252
  C        21.5251220569       17.8941150529       13.1793013909
  C        21.5510396456       17.8956364632       14.6004089335
  C        22.7709392866       17.7859498658       15.3405751449
  C        14.0464524937       17.8279288960       10.2899700289
  C        15.3494100836       17.8824968419       11.0172529162
  C        15.6066613213       18.8849336116       11.9656225196
  C        16.8149635560       18.9036441489       12.6596435669
  C        17.8005138082       17.9226108243       12.4280803065
  C        17.5476558753       16.9440879283       11.4480117837
  C        16.3389899944       16.9208892245       10.7552620615
  C        19.0697588105       17.9053878268       13.1965050495
  C        19.0699196636       17.9101253328       14.6190440707
  C        17.8636448606       17.8152746750       15.3819288676
  C        46.8067498651       17.2203419718       10.1602789837
  C        45.5194233149       17.1632946080       10.9104744606
  C        45.3145629186       16.1879028577       11.8983881226
  C        44.1351411117       16.1740767739       12.6380386962
  C        43.1314375167       17.1357947264       12.4110606374
  C        43.3341758822       18.0918276707       11.3975986176
  C        44.5142727554       18.1095233044       10.6590196260
  C        41.8781127156       17.1468073537       13.1985050967
  C        41.8807151378       17.1382879048       14.6201494362
  C        43.0879128329       17.2315166918       15.3816858050
  C        20.3172822410       17.9241865348       15.3264401055
  C        20.2934292025       17.8789663556       12.5130275465
  C        46.7847485438       17.2295729187        5.8913367335
  C        45.4793288747       17.1193091427        5.1802470603
  C        45.2617769931       16.1203457233        4.2193624799
  C        44.0728218998       16.0910302909        3.4947864559
  C        43.0721245959       17.0572077188        3.7150544530
  C        43.2790495715       18.0244103286        4.7161582494
  C        44.4694950082       18.0604944585        5.4352292427
  C        41.8270909588       17.0794843300        2.9163913654
  C        41.8548790414       17.1013792219        1.4957623437
  C        43.0757264486       17.2114839551        0.7581156862
  C        46.1531757685       26.6372021462        0.7263257135
  C        46.1626562201       26.6561773950        3.5359605549
  C        14.0469054174       17.8331775466        5.7093909554
  C        15.3688866442       17.9110329575        5.0213259579
  C        15.6411732627       18.9272867050        4.0931100088
  C        16.8709411272       18.9678717399        3.4398361809
  C        17.8567832640       17.9915045723        3.6884112685
  C        17.5915784599       17.0048644456        4.6556370670
  C        16.3638065906       16.9636833713        5.3125365667
  C        19.1239055955       17.9681434104        2.9186146187
  C        19.0980803274       17.9410468628        1.4971877804
  C        17.8775848231       17.8291112266        0.7580271572
  C        28.8066153418       14.0930921114       10.3917884057
  C        28.1879796968       12.9238987164       11.0831579936
  C        28.8917869523       12.2117478910       12.0653101024
  C        28.2875663904       11.1395376648       12.7168205109
  C        26.9651286821       10.7572016142       12.4114115560
  C        26.2839801717       11.4514152493       11.3952236756
  C        26.8861476978       12.5234480866       10.7419015171
  C        26.2902988683        9.6803000179       13.1700623137
  C        26.2688047032        9.7106143072       14.5921462388
  C        26.7521257116       10.8319324771       15.3367799661
  C        32.1804707629       21.2413411630       10.1407011947
  C        32.7793804803       22.4056543749       10.8603732513
  C        32.0358507499       23.0810014912       11.8403045735
  C        32.6109514192       24.1177842227       12.5690156680
  C        33.9445818090       24.5065100825       12.3373949135
  C        34.6704430782       23.8495226417       11.3263280449
  C        34.0978722034       22.8070588958       10.6000833271
  C        34.5776092969       25.5796659189       13.1367243854
  C        34.5762634779       25.5472492274       14.5578007596
  C        34.0725823991       24.4290099541       15.2945239620
  C        25.6704236560        8.6268044930       15.3108159116
  C        25.6609541887        8.6246048849       12.4967443166
  C        32.1073844545       21.2244806456        5.8805094278
  C        32.7027613375       22.3697441776        5.1279778962
  C        31.9695282319       23.0327110689        4.1308132112
  C        32.5551324056       24.0588136751        3.3915521558
  C        33.8857263473       24.4543908562        3.6348995464
  C        34.6006041975       23.8043567905        4.6586227267
  C        34.0212312071       22.7709853041        5.3904825814
  C        34.5283854886       25.5367396894        2.8546918655
  C        34.5490383032       25.5264219297        1.4335568562
  C        34.0585094580       24.4202249577        0.6709872709
  C        40.6189814913       17.1024694691        0.7699513728
  C        40.5951396966       17.1009903893        3.5793175928
  C        28.7462160439       14.0736040323        5.8177116155
  C        28.1328500604       12.9291041785        5.0776919675
  C        28.8521216841       12.2649358557        4.0730074863
  C        28.2706447239       11.2074566159        3.3770400928
  C        26.9541594423       10.7898024698        3.6600517033
  C        26.2526709315       11.4441932294        4.6902493018
  C        26.8324172500       12.5018687649        5.3877820189
  C        26.3083203110        9.7004465730        2.8901834804
  C        26.2808385159        9.7199049457        1.4673002074
  C        26.7563925960       10.8375029045        0.7137524140
  C        18.1353843773        3.1811717345       10.3172111633
  C        17.4061770205        4.2783282282       11.0157120974
  C        16.3905263164        4.0000110586       11.9433667394
  C        15.7428958180        5.0400112210       12.6068757165
  C        16.0947761527        6.3837580052       12.3671152406
  C        17.0839900652        6.6532492000       11.4031410620
  C        17.7329774828        5.6158858270       10.7380368757
  C        15.4704735348        7.4914316613       13.1301718222
  C        15.4855598523        7.4905383876       14.5518956176
  C        16.1869433780        6.4968108148       15.3050929575
  C        42.9460152133       31.8595557430       10.0729237760
  C        43.6464165273       30.7719366915       10.8168236520
  C        44.5918105549       31.0932570254       11.8030404142
  C        45.1974514835       30.0876998033       12.5507438106
  C        44.8711850211       28.7346082933       12.3357568754
  C        43.9456480141       28.4202941760       11.3222560219
  C        43.3368870411       29.4254199403       10.5741687690
  C        45.4887014276       27.6552822979       13.1389500601
  C        45.4927602239       27.6809032304       14.5606403908
  C        44.8057430958       28.6890020430       15.3072595069
  C        14.8565804810        8.5630089452       15.2642812691
  C        14.8754558046        8.5633805431       12.4515873652
  C        42.9465742608       31.9616055607        5.8089486717
  C        43.6918388962       30.8855440011        5.0955500112
  C        44.6561351249       31.1914835220        4.1229470260
  C        45.2777385628       30.1719089766        3.4052853942
  C        44.9543283992       28.8215483285        3.6432357900
  C        44.0213529256       28.5238669031        4.6545013124
  C        43.3930139581       29.5406064098        5.3666253540
  C        45.5632260233       27.7241322107        2.8579421124
  C        45.5333019790       27.7173969867        1.4366471828
  C        44.8270175342       28.7076282424        0.6836559864
  C        35.1550007001       26.6194317787        0.7307467181
  C        35.1341214474       26.5965957465        3.5402608507
  C        18.1485357486        3.2470845943        5.7065481719
  C        17.4299898841        4.3438260309        4.9974024822
  C        16.4147620616        4.0525532622        4.0738053362
  C        15.7664610377        5.0831913525        3.3984608497
  C        16.1211411885        6.4284515745        3.6211805230
  C        17.1124608802        6.7118374549        4.5785192186
  C        17.7601193335        5.6829242108        5.2582873452
  C        15.4906369846        7.5241308288        2.8487503535
  C        15.4963957460        7.5073497593        1.4276149741
  C        16.1930699243        6.5055766299        0.6809224856
  H        10.6721130354       12.4648060892        3.9056969677
  H        11.6944217537       10.5499584435        2.6638368210
  H        15.3927036927       11.1703478233        4.7705420322
  H        14.3522169319       13.0731270116        6.0156355492
  H        13.3762063879       11.6311107138        1.2014738062
  H        50.3229355206       22.7484262527        3.9868580455
  H        49.3198375812       24.6229305338        2.6808461026
  H        45.6424231397       24.1613763140        4.8638653551
  H        46.6633993661       22.2903315938        6.1721271256
  H        47.6298346159       23.5759144962        1.2463091844
  H        14.8725543333        8.5886408521        4.6086736004
  H        50.2870988563       22.7026327374       12.0603636338
  H        49.2691400454       24.5755041411       13.3604488717
  H        45.6105043780       24.1092023917       11.1460965783
  H        46.6527557712       22.2538377378        9.8317638571
  H        47.6076871707       23.5518097276       14.7969079300
  H        40.6635772187       17.1402307584       11.4291060154
  H        48.6871829468       14.0949747303        7.8000587416
  H        10.6812359258       12.4658442328       12.0923568150
  H        11.6896711278       10.5239509832       13.2960804145
  H        15.3947515487       11.1608042348       11.2073258777
  H        14.3661029816       13.0890941542        9.9920440165
  H        13.3759904158       11.6221854984       14.7531731350
  H        47.9302967153       14.2183452347        9.7109461904
  H        47.7801696551       14.3739586207        6.4954016774
  H        49.0847911954       18.5526536999       10.8677137378
  H        10.4162399533       14.1342867756        7.9987246860
  H        24.4841189037        3.0300304132        3.9152652796
  H        25.6258415229        4.8900359793        2.6916572342
  H        23.2601230802        7.7558422950        4.8576225863
  H        22.1351310763        5.8859886639        6.0810896341
  H        23.8122667020        5.7940901576        1.2724495208
  H        36.3778267691       32.1802815576        3.9629308196
  H        35.2610467252       30.3516327135        2.6821459554
  H        37.5293477297       27.4359103883        4.8859502472
  H        38.6264724366       29.2773405788        6.1748116538
  H        37.0424605021       29.4409819595        1.2699214787
  H        25.7530419150        8.6090842324        4.6551884757
  H        36.4584667980       32.2381375553       12.1133372629
  H        35.3515666911       30.4157229394       13.4081797259
  H        37.5351289607       27.4866767858       11.1361610925
  H        38.6170572859       29.3208360180        9.8295182589
  H        37.0617235617       29.4611494615       14.8210881128
  H        46.1096098204       26.5876411719       11.3856437519
  H        44.6684754082       35.1162262128        7.8138357415
  H        24.4293637322        3.0453656585       12.0968563196
  H        25.5544519177        4.8873242421       13.3487349870
  H        23.1612507900        7.7711501640       11.2378777494
  H        22.0469241266        5.9169640360        9.9870985514
  H        23.7832877910        5.7973618975       14.8235179473
  H        44.9546162685       34.3912059647        9.6956813935
  H        44.9025051255       34.2071446392        6.4904301456
  H        40.6665306263       33.2094513382       10.8532620672
  H        23.1506896781        1.9578274384        8.0056083743
  H        25.8463130254       19.6292967136        3.8874374429
  H        23.6703868998       19.6912395097        2.6634251768
  H        22.3422534367       16.2451574435        4.8684930767
  H        24.5178628297       16.2058028453        6.0957469710
  H        23.7265472263       17.6791105334        1.2454712054
  H        35.1686875809       15.4002674951        4.0606593178
  H        37.2779470990       15.3614491194        2.7215296017
  H        38.6817735547       18.8207789056        4.8569581952
  H        36.5634473403       18.8485660133        6.1893786344
  H        37.2248070330       17.3550525048        1.2489609638
  H        20.3651268087       17.9957885713        4.6719235930
  H        35.2211498120       15.4368741537       12.0421432731
  H        37.3543100827       15.3824980596       13.3438701772
  H        38.7297762404       18.8563253363       11.2128441600
  H        36.5934421213       18.8885589953        9.9061027175
  H        37.2455208264       17.3690634483       14.7937768938
  H        35.1548191685       26.6814973831       11.3900305595
  H        28.5077069450       21.0870760247        7.9654658732
  H        25.7107152322       19.6736560069       12.0978453774
  H        23.5336860993       19.7134814311       13.3263167986
  H        22.3292037264       16.1231235788       11.2896688150
  H        24.5139441761       16.0949360470       10.0686113947
  H        23.7016956654       17.6589855911       14.7955969135
  H        29.0027748835       21.7210339412        9.7658630507
  H        29.1472366331       21.7521513504        6.6128671157
  H        32.1190011107       18.5714042370       10.9624335580
  H        27.3992413226       19.0694470870        8.0712610784
  H        14.8494777093       19.6453820880       12.1431737749
  H        17.0108724434       19.6876655941       13.3879716165
  H        18.2978337105       16.1787067155       11.2598876219
  H        16.1328210752       16.1522810614       10.0141884445
  H        16.9204647821       17.6976770575       14.8563576349
  H        46.0964355084       15.4540160715       12.0791497074
  H        43.9757721095       15.4093645800       13.3950521509
  H        42.5671266152       18.8424987093       11.2189057616
  H        44.6878148742       18.8614007574        9.8927601231
  H        44.0302048756       17.3512656296       14.8546473015
  H        20.2869515512       17.9008633429       11.4247071646
  H        46.0406155644       15.3824772348        4.0408382561
  H        43.9071504321       15.3169967595        2.7485791656
  H        42.5107726239       18.7742419555        4.8929501076
  H        44.6516330384       18.8269275981        6.1845473863
  H        44.0086480527       17.3148273364        1.3046072925
  H        46.1998148111       26.6828276079        4.6233939760
  H        52.7413802852       21.0627138435        8.1947029247
  H        14.8790660154       19.6790689049        3.9000389238
  H        17.0806282591       19.7587700344        2.7228746929
  H        18.3440391773       16.2448839355        4.8560389042
  H        16.1443751574       16.1885934291        6.0428085491
  H        16.9447323461       17.7221826090        1.3033749778
  H        52.3231054969       21.6735011740        6.2940456406
  H        52.0136010411       21.7023304682        9.4956437809
  H        49.0678029638       18.6073064421        5.2038605397
  H        13.2480247021       19.0158361156        7.9777222552
  H        29.9078490065       12.5158803540       12.3067969515
  H        28.8358109102       10.5854348497       13.4755724132
  H        25.2621430039       11.1672686186       11.1522794054
  H        26.3582214625       13.0809582334        9.9721046085
  H        27.0949328034       11.7093236083       14.7968072192
  H        31.0109940816       22.7674218216       12.0246971094
  H        32.0298121801       24.6416293488       13.3248531008
  H        35.7025981040       24.1410086712       11.1428022020
  H        34.6629551872       22.2730648862        9.8395315094
  H        33.7195584330       23.5602280994       14.7463404298
  H        25.6969968452        8.6019620308       11.4089953540
  H        30.9400039793       22.7306317374        3.9495218087
  H        31.9798620526       24.5767502532        2.6269578881
  H        35.6301314326       24.0989734545        4.8516065986
  H        34.5778019794       22.2469278210        6.1640696210
  H        33.6966850531       23.5433939903        1.1999515073
  H        40.5860427685       17.0618793516        4.6669177564
  H        32.5166976016       14.1393343301        8.2554968266
  H        29.8654844367       12.5947303559        3.8541426671
  H        28.8371231522       10.6876710785        2.6074257894
  H        25.2333442836       11.1366293491        4.9145067027
  H        26.2872145653       13.0241282977        6.1703503071
  H        27.1012023007       11.7190390324        1.2463780859
  H        33.3002987547       14.1911828290        6.4493446781
  H        33.4097606376       14.4002078542        9.6078017931
  H        32.1631900912       18.5167102737        5.2033517086
  H        30.2112294115       14.1872892728        8.0740431124
  H        16.1184588370        2.9635307785       12.1298736656
  H        14.9534900514        4.8206921796       13.3226069582
  H        17.3663832807        7.6861224433       11.2099203202
  H        18.5148990429        5.8186204088       10.0100885106
  H        16.7535807046        5.7395045118       14.7716212533
  H        44.8280265416       32.1403327320       11.9773512634
  H        45.9372425231       30.3414734267       13.3067570456
  H        43.6832512833       27.3781890224       11.1519046119
  H        42.6005324966       29.1900664650        9.8092634596
  H        44.2305123853       29.4368682828       14.7689657303
  H        14.8519462641        8.5468693694       11.3633527976
  H        44.8994980103       32.2341685434        3.9312870788
  H        46.0244208410       30.4131732807        2.6518363410
  H        43.7649228169       27.4840845648        4.8464806302
  H        42.6470160995       29.3177786766        6.1255495872
  H        44.2686423965       29.4706294163        1.2182146893
  H        35.0881316952       26.6096465816        4.6275982592
  H        36.6050684791       35.1340717812        8.1806962084
  H        16.1436335627        3.0129976658        3.9040393211
  H        14.9741193860        4.8564038792        2.6883705004
  H        17.3960091575        7.7473030931        4.7554067329
  H        18.5430041366        5.8934820801        5.9830098167
  H        16.7645332672        5.7553381427        1.2193387501
  H        36.2781489414       34.4829063968        6.2727801718
  H        36.3804072333       34.2094657555        9.4997502381
  H        40.5809699782       33.2030742885        5.1531777826
  H        17.4708884975        1.9477924478        7.9740736749
  H        28.8440687907       19.3792969941       12.3223979452
  H        30.3383352149       19.6320987958        3.5666577736
  H        32.2855928650       16.2686443896        3.5952844009
  H        31.1424270136       15.5566543522       12.4432188212
  H        27.7525022339       18.5889262159       14.2774594571
  H        29.2787287603       15.1710177520       14.4176083585
  H        31.8051123269       20.8612992609        1.9908076686
  H        33.9614026499       16.5062041089        1.6782056978
  H        29.3630995162       16.7855480004        1.4030282792
  H        32.1049371707       18.2953767303       14.0020594091
  H        18.8532945999        0.8690530166       12.3352206172
  H        40.5278603048       35.2289732841        3.9519407095
  H        42.3249512929       34.4197223667        3.5899586311
  H        22.0879452311        0.6921656165       12.3517615307
  H        11.5969470285       18.7129689598       12.3824202580
  H        52.2652106938       18.4312477821        3.6774137734
  H        49.2553143114       16.4766251211        3.5842892648
  H        10.1509654219       15.7982469524       12.2925700968
  H        50.8503441479       17.6925438876        3.9541323910
  H        10.0466236498       17.3946750862       12.0518863630
  H        20.2146942892        0.0024436095       12.0419896177
  H        39.1835181408       36.1244501191        3.6866119385
 Ni        30.2156204928       17.3120119943        3.2498578183
 Ni        31.2816514958       16.2053820107       -0.4984025823
 Ni        30.0601921969       19.3972215570       -0.7486153096
 Ni        29.9271595758       17.3755291179       13.0741234371
  O        10.6500038014       14.3650713560        5.4858049510
  O        12.6132145423       14.6575145297        6.5838919170
  O        49.1480510813       16.8458552999        7.9897125061
  O        50.3503059893       20.9358876189        5.6479816133
  O        48.3485168312       20.5933805441        6.6658575265
  O        11.0518884883       17.0537771992        6.5007838268
  O        50.3209665679       20.8817100391       10.4068853016
  O        48.3467256560       20.5867645026        9.3271281947
  O        49.5438653599       18.2484270282       10.0681621780
  O        12.3592401915       18.6246730181        7.9996534722
  O        48.6933149044       14.1485679086        6.7513205099
  O         8.2099403915       14.2103853687        9.3225252633
  O        10.7354298087       14.5067124674       10.6642870286
  O        12.5718634464       14.5827996294        9.3284778471
  O        22.8447016760        2.0431905786        5.4870686296
  O        21.6059622088        3.5924972405        6.5894143405
  O        42.0584113299       34.1375600019        7.9790015015
  O        37.9817497855       33.1367702785        5.5721419193
  O        39.2184141638       31.5760445791        6.6669320736
  O        20.3084713080        1.0397031709        6.5021309100
  O        38.0247859789       33.1860134263       10.4151171761
  O        39.2196873906       31.5842480973        9.3258604861
  O        40.6523657489       33.7695252873       10.0602401005
  O        18.2553630860        1.3763057665        7.9967698731
  O        44.6221836066       35.1005880693        6.7587316688
  O        24.2053191082        0.0001006504        9.3208084327
  O        22.7530650793        2.0585350192       10.5842472185
  O        21.6245214647        3.5962466777        9.3426855058
  O        27.4993753892       18.7512103306        5.4985439519
  O        26.7663605606       16.9326018638        6.6556204864
  O        30.6665366192       19.4078480575        8.0475043475
  O        33.5987342559       16.2675390658        5.7394475856
  O        34.2835910790       18.1846877283        6.7414776895
  O        29.5776927507       17.0669240242        6.5715814859
  O        33.6201137600       16.3293319768       10.4118123359
  O        34.3059779001       18.2477123257        9.4069067167
  O        31.6502428167       18.3165813991       10.1526014867
  O        30.3203396050       15.1522335588        8.0873849463
  O        28.5540581204       21.0346721417        6.8990749417
  O        28.5117751303       20.9602873686        9.4113680663
  O        27.4528398822       18.6779779512       10.6587806626
  O        26.6932787243       16.9283390635        9.4124211292
  O        13.1486426403       18.6928247561       10.5874463006
  O        13.9191784811       16.9162102722        9.4050431308
  O        50.5964608195       19.3501863737        8.0202852101
  O        47.6835990309       16.3270708425       10.4173028952
  O        46.9519445184       18.1760081018        9.3244626993
  O        11.0700595260       17.0153571602        9.4895409102
  O        47.6760763060       16.3355490552        5.6532435043
  O        46.9267426703       18.2358014845        6.6644070286
  O        49.5688504551       18.3176802857        5.9822686173
  O        10.3187505019       15.1001222857        7.9970894753
  O        52.6707794989       21.0278568367        9.2418087212
  O        12.1468574004       20.8912321522        6.6733181908
  O        13.1081819197       18.6136596214        5.3256675552
  O        13.9575660056       16.9872928144        6.6651393699
  O        29.9913349460       14.4400003741       10.7286294902
  O        28.0880155283       14.6547792640        9.4938341873
  O        32.1410771114       16.8564169441        8.0819767103
  O        30.9675587537       20.9547708434       10.4066638026
  O        32.9483993281       20.6012495406        9.3368158834
  O        29.5666767414       17.0755603853        9.5748480336
  O        30.8756667697       20.9475709996        5.6587719579
  O        32.8797467470       20.5873871107        6.6662677102
  O        31.6862367176       18.2549786354        6.0057815918
  O        28.2873661411       18.6770006602        8.0731041987
  O        32.4940656461       14.2116076747        9.3310310004
  O        32.4067423116       14.2068701679        6.8302439934
  O        29.9177541001       14.4419779972        5.4916165569
  O        28.0384043755       14.5907797617        6.7551543671
  O        17.8892991716        1.9666303475       10.6627326737
  O        18.9562919236        3.5270796917        9.4079458311
  O        39.1686424053       34.1389077468        7.9971854309
  O        43.2802151354       33.0590219476       10.3316897072
  O        42.0345482725       31.5064933349        9.2416448064
  O        20.3178487260        1.0369645949        9.4800500109
  O        43.2760187786       33.1826134704        5.5748790887
  O        42.0052932609       31.5841259974        6.5829752102
  O        40.5789953143       33.7750530194        5.9357952106
  O        22.3674460147        1.3847566129        7.9979118297
  O        36.6727785274       35.0998543386        9.2332738401
  O        16.4456380913        0.0642088540        6.6682217635
  O        17.9365336806        2.0433122778        5.3264280300
  O        18.9191555333        3.5930881630        6.6659106791
  O        29.8218455698       18.9741188602        4.0870043175
  O        29.7006996880       19.0528227013       11.9935798411
  O        31.4746160282       16.2578659912        4.1557181126
  O        31.3170181103       16.4038735746       11.9782554384
  O        33.0061636425       16.5586969946        1.8447650083
  O        29.7353874029       17.0813472891        0.4919033824
  O        30.0786636710       15.5982465071       14.0711045260
  O        31.3090636969       18.0307186877       14.4914461339
  O        31.2197403562       20.0876469328        1.9235071950
  O        28.6086412570       18.1845280408       14.4926594159
  O        39.4567156159       35.2437403838        4.0019529597
  O        19.1413796754        0.0046011357       11.9905479023
  O        41.9695531327       35.1727228576        4.0871767827
  O        21.6914089887       -0.0690703205       11.8959193925
  O        51.3652592886       18.6143309144        4.0053445616
  O        10.7510900705       18.7471768396       11.9049192351
  O        50.0796460363       16.4127916058        4.0917225946
  O         9.5249610814       16.4830520909       11.9911783695
 Zr         9.2978165634       16.0527051377        6.1825273803
 Zr        49.8372120283       16.0065783094        9.7462943041
 Zr        22.0734649018        0.0301267797        6.1889119608
 Zr        42.4611997966       35.1537844539        9.8010660045
 Zr        29.5989125113       19.1025054569        6.2685767089
 Zr        29.5806190386       19.1793058639        9.8342390820
 Zr        11.0389479083       19.0516471405        9.8277218005
 Zr        11.0449744176       19.1546287363        6.2506380530
 Zr        31.3527418706       16.0951301059        9.8711818629
 Zr        31.4039163434       15.9978945996        6.3017748321
 Zr        18.6014056867       -0.0006129663        9.7632540946
 Zr        18.5066134257       -0.0072441527        6.2138248704
 Zr        12.3034753701       16.3237259441        7.9901358529
 Zr        48.6176504066       18.8331322862        8.0099849463
 Zr        20.3152073118        2.4740019442        7.9903855537
 Zr        40.6442054659       32.6876746244        7.9781834704
 Zr        28.3443526409       16.3382471336        8.0731237127
 Zr        32.6278508841       18.8351131079        8.0550325136
  H        28.9792665656       16.5378818725        2.7356039647
  H        28.9908663632       17.3005016164       -0.1525450475
  H        32.5900493954       15.8410066416        1.2780253232
  H        30.5009545799       20.3633365815        1.2964828934
  H        29.3838930900       20.5511003393       -0.0523556053
  H        31.7042012009       14.9853201410        0.3118313101
