     573
 i =      206, E =     -4762.7654360924
  C        11.8582116790       14.0538271143        5.7416446081
  C        12.4557809672       12.8904886939        5.0233073567
  C        11.7044743006       12.1724844822        4.0807170868
  C        12.2807448731       11.1102008844        3.3883106455
  C        13.6208533040       10.7394037506        3.6170042387
  C        14.3535448265       11.4419740109        4.5915453399
  C        13.7807476680       12.5070338886        5.2830390614
  C        14.2605214727        9.6487989267        2.8436279276
  C        14.2565677467        9.6570000666        1.4219074352
  C        13.7437580234       10.7592670081        0.6679465657
  C        49.1264921849       21.2332578359        5.8797934617
  C        48.5496909616       22.4011194772        5.1525294034
  C        49.2999374982       23.0689072386        4.1720321597
  C        48.7329550989       24.1079854944        3.4387994097
  C        47.4021875282       24.5091118134        3.6669674791
  C        46.6708769462       23.8595357956        4.6797333964
  C        47.2333543290       22.8146095566        5.4090647663
  C        46.7720912655       25.5869173641        2.8697091744
  C        46.7612820563       25.5574196704        1.4479486048
  C        47.2610216516       24.4421873746        0.7045229835
  C        14.8605848670        8.5706518873        0.7086929449
  C        14.8907803312        8.5965242525        3.5202750354
  C        49.1129292084       21.2033168633       10.1451854151
  C        48.5274818763       22.3645203572       10.8726539306
  C        49.2668858290       23.0256517898       11.8651359137
  C        48.6904965194       24.0601561317       12.5966128687
  C        47.3598964472       24.4564987133       12.3587458087
  C        46.6391762030       23.8109495446       11.3358789868
  C        47.2127548867       22.7750041804       10.6041483015
  C        46.7215790835       25.5316149594       13.1496863724
  C        46.7335122417       25.5281618576       14.5713826753
  C        47.2487310353       24.4288366769       15.3277630649
  C        40.6260271211       17.1107606209       15.3254278675
  C        40.6600323838       17.1753585812       12.5129864906
  C        11.8826164648       14.0866809107       10.2852550901
  C        12.4720206126       12.9104369283       10.9894632224
  C        11.7147611558       12.1778594175       11.9161951062
  C        12.2812648717       11.0953679130       12.5847216132
  C        13.6197575060       10.7209487177       12.3523069748
  C        14.3573765293       11.4357950210       11.3907040688
  C        13.7920351800       12.5170269714       10.7179872192
  C        14.2535007938        9.6243053761       13.1228046961
  C        14.2528587657        9.6446077906       14.5446577223
  C        13.7432568168       10.7537161051       15.2916884415
  C        22.5159067634        3.2463073469        5.7546214320
  C        23.2394180376        4.3528757006        5.0602832205
  C        24.2447090766        4.0722565006        4.1226665492
  C        24.8803808545        5.1104176110        3.4454340113
  C        24.5282767032        6.4541897324        3.6841260689
  C        23.5508739791        6.7264116790        4.6590923754
  C        22.9108177908        5.6896560969        5.3351164459
  C        25.1402617340        7.5581106791        2.9062750675
  C        25.1138408242        7.5440502218        1.4822061271
  C        24.4057465108        6.5464232404        0.7422317664
  C        38.2977848262       31.9259205683        5.8517211365
  C        37.5589753570       30.8358578409        5.1532389912
  C        36.5962260294       31.1370795756        4.1767108172
  C        35.9717662839       30.1155746684        3.4667354028
  C        36.2922806597       28.7643052152        3.7084573274
  C        37.2230441043       28.4714296463        4.7240884831
  C        37.8520414016       29.4916533978        5.4335098497
  C        35.6882992822       27.6741411602        2.9094536233
  C        35.7111654124       27.7021284798        1.4827342053
  C        36.4192495299       28.7019628969        0.7519391390
  C        25.7411732541        8.6079037310        0.7558475747
  C        25.7397373388        8.6355584396        3.5699791943
  C        38.3284658565       31.9610588173       10.1587407494
  C        37.6081482626       30.8919419787       10.9031790899
  C        36.6901417622       31.2037007969       11.9189809244
  C        36.0807692739       30.1885520263       12.6527142502
  C        36.3704606461       28.8324927371       12.3950889123
  C        37.2660505788       28.5319129885       11.3487557941
  C        37.8794175634       29.5434396085       10.6173833820
  C        35.7576875779       27.7363273408       13.1766469745
  C        35.7477287626       27.7329355108       14.6029484728
  C        36.4361655261       28.7180155061       15.3720920997
  C        46.1356524592       26.6209202681       15.2814530061
  C        46.0875452654       26.5798901674       12.4735878534
  C        22.4598928965        3.2546997035       10.2586673100
  C        23.1538083991        4.3616109017       10.9856261255
  C        24.1520882063        4.0711407557       11.9292208317
  C        24.7816281310        5.0978940803       12.6285844725
  C        24.4339414482        6.4454376763       12.4060968936
  C        23.4573046105        6.7290001223       11.4322907267
  C        22.8227036991        5.7022364739       10.7339988909
  C        25.0714930845        7.5411009914       13.1771457424
  C        25.0780230105        7.5349552943       14.6016127588
  C        24.3867790838        6.5430135046       15.3641139341
  C        26.6514656873       17.8022605024        5.7388046706
  C        25.3529784750       17.8708646973        5.0259680871
  C        25.0975476422       18.8570047227        4.0550483193
  C        23.8791505779       18.8874775852        3.3823481932
  C        22.8667594650       17.9411507441        3.6560400750
  C        23.1144789157       16.9873131938        4.6649593030
  C        24.3354340966       16.9465699107        5.3322758037
  C        21.5926995754       17.9298225496        2.8991481723
  C        21.5885606473       17.9169765724        1.4737296574
  C        22.7885792462       17.7864471709        0.7086326237
  C        34.3927650150       17.2162629420        5.8681758039
  C        35.6683694575       17.1357798095        5.1439465319
  C        35.8563375164       16.2109192307        4.0953597890
  C        37.0430205191       16.1939767303        3.3736012739
  C        38.0975265108       17.0867191966        3.6762216156
  C        37.9177702513       17.9734503246        4.7619428545
  C        36.7263167095       18.0084112890        5.4736409985
  C        39.3499090770       17.1057892500        2.9015092478
  C        39.3561073284       17.1202011752        1.4735827978
  C        38.1607509530       17.2648601327        0.7086823203
  C        20.3395339661       17.9382161228        0.7688512252
  C        20.3671761228       17.9232380392        3.5841363742
  C        34.4825136788       17.2432642617       10.1813609560
  C        35.7824985296       17.1635478808       10.8921515654
  C        35.9836554609       16.2002821160       11.8946646220
  C        37.1677461670       16.1844891147       12.6229547097
  C        38.1856269172       17.1273874985       12.3698930737
  C        37.9918623925       18.0586219756       11.3302686717
  C        36.8043110260       18.0834674911       10.6061274849
  C        39.4253869500       17.1498924302       13.1695603151
  C        39.3932272204       17.1460930304       14.5941988525
  C        38.1770453521       17.2749352572       15.3291987380
  C        35.1050308326       26.6557862083       15.3020293876
  C        35.1788475401       26.6621684693       12.4895788625
  C        26.5631677283       17.8300388932       10.3228555569
  C        25.2501305382       17.8780048426       11.0213003161
  C        24.9905349084       18.8760261734       11.9742162014
  C        23.7740305884       18.9000652474       12.6484617386
  C        22.7848153635       17.9276033024       12.3949114848
  C        23.0379535145       16.9576579817       11.4070172150
  C        24.2558423496       16.9297260120       10.7314209898
  C        21.5248641133       17.9067859017       13.1707110801
  C        21.5539306838       17.9021024290       14.5936428090
  C        22.7723907396       17.7801807650       15.3311078672
  C        14.0452736695       17.8284093601       10.2892814563
  C        15.3486121938       17.8847141070       11.0166159226
  C        15.6021871701       18.8846487696       11.9686201755
  C        16.8099693294       18.9051171455       12.6632348060
  C        17.7994653491       17.9290034745       12.4275246125
  C        17.5500499911       16.9529428823       11.4438514000
  C        16.3414072551       16.9275651758       10.7513111834
  C        19.0690876892       17.9132763895       13.1940169769
  C        19.0724677149       17.9161308799       14.6182682328
  C        17.8693431101       17.8183486501       15.3826190258
  C        46.8058289677       17.2195782302       10.1607913648
  C        45.5208089289       17.1612318529       10.9091414107
  C        45.3224419837       16.1958558934       11.9091400015
  C        44.1447064126       16.1834989179       12.6501899851
  C        43.1320082158       17.1344767078       12.4127335127
  C        43.3287357848       18.0788225901       11.3857630258
  C        44.5078381111       18.0967338913       10.6468345191
  C        41.8796048353       17.1469279887       13.1975745081
  C        41.8777654971       17.1299931544       14.6233847872
  C        43.0785575500       17.2209821947       15.3881517459
  C        20.3217511778       17.9296143547       15.3230557301
  C        20.2908597910       17.8894774822       12.5083971392
  C        46.7794077004       17.2284047828        5.8915787101
  C        45.4711848319       17.1162718144        5.1875910255
  C        45.2518364448       16.1263547148        4.2164415760
  C        44.0603116022       16.0997798562        3.4961857996
  C        43.0527029160       17.0580181731        3.7280058673
  C        43.2613265824       18.0132194017        4.7417291559
  C        44.4547085403       18.0476754380        5.4564744978
  C        41.8084474237       17.0864635098        2.9279465673
  C        41.8417530697       17.0961902310        1.5012845966
  C        43.0603822646       17.2032374382        0.7682671672
  C        46.1534433121       26.6373977966        0.7261991831
  C        46.1620347540       26.6559675382        3.5358269314
  C        14.0477085704       17.8319670392        5.7091624326
  C        15.3722823975       17.9060975498        5.0214165470
  C        15.6514387503       18.9214614533        4.0941569855
  C        16.8828471735       18.9573258417        3.4429492802
  C        17.8653805220       17.9770625118        3.6915325162
  C        17.5927995829       16.9907769097        4.6573108518
  C        16.3635020128       16.9546899577        5.3124900347
  C        19.1331858369       17.9496216014        2.9216436891
  C        19.1059235765       17.9341304320        1.4973310319
  C        17.8858688058       17.8264602617        0.7602749212
  C        28.8062387844       14.0838267279       10.3918761268
  C        28.2007593141       12.9060435898       11.0680725298
  C        28.9252878744       12.1699591080       12.0187401025
  C        28.3303230632       11.0930963759       12.6689716057
  C        26.9958768781       10.7264639761       12.3962262745
  C        26.2957072906       11.4402981645       11.4059578472
  C        26.8878137280       12.5177464184       10.7528923597
  C        26.3302765579        9.6499234686       13.1623693440
  C        26.3325784330        9.6759787302       14.5848043373
  C        26.8398938871       10.7891102095       15.3246636758
  C        32.1767902250       21.2512017508       10.1477086174
  C        32.7662360480       22.4176623944       10.8558621133
  C        32.0200678807       23.0874949757       11.8402402632
  C        32.5890700565       24.1256022687       12.5691073755
  C        33.9203949719       24.5283943719       12.3374865984
  C        34.6451267467       23.8801556866       11.3175819056
  C        34.0804985990       22.8346139231       10.5906503970
  C        34.5469858747       25.5985643192       13.1421207562
  C        34.5189607918       25.5724729359       14.5672389295
  C        34.0097317396       24.4583613088       15.2999085131
  C        25.7263414314        8.6003066565       15.3102485260
  C        25.6817036103        8.6023654508       12.4956171779
  C        32.0816239062       21.2031520941        5.8664283270
  C        32.6411610191       22.3496084582        5.1330316379
  C        31.9241932447       22.9844914322        4.0978670162
  C        32.5039646845       24.0156691453        3.3672156331
  C        33.8128692703       24.4695731232        3.6513773617
  C        34.5017726377       23.8596204658        4.7239346458
  C        33.9371749329       22.8134054791        5.4405931821
  C        34.4575989149       25.5450005806        2.8756311533
  C        34.4706611244       25.5483782006        1.4478029953
  C        33.9867367935       24.4480443505        0.6793049070
  C        40.6071034487       17.0949588583        0.7714728581
  C        40.5755430439       17.1172667417        3.5844291546
  C        28.7401703452       14.1202509978        5.7706066478
  C        28.1632339080       12.9694939071        5.0373464502
  C        28.8981633305       12.2718234647        4.0617966680
  C        28.3262494119       11.2008730343        3.3807406589
  C        27.0028055669       10.7872328364        3.6481877304
  C        26.2906727139       11.4652227622        4.6585570185
  C        26.8565906550       12.5392094169        5.3374835266
  C        26.3623130702        9.6910632821        2.8866730627
  C        26.3523369584        9.6957917855        1.4625597148
  C        26.8469406999       10.7995426453        0.7014087518
  C        18.1353928424        3.1804360968       10.3169925320
  C        17.4058059318        4.2778544565       11.0155409884
  C        16.3912572460        3.9993521694       11.9442492905
  C        15.7434382406        5.0392412123       12.6078506962
  C        16.0940631084        6.3830975402       12.3670995043
  C        17.0820866129        6.6527019372       11.4019481509
  C        17.7312701038        5.6154439278       10.7368357654
  C        15.4699195116        7.4908551165       13.1301799397
  C        15.4857416593        7.4905153036       14.5518960512
  C        16.1874663272        6.4970599876       15.3051369733
  C        42.9458137698       31.8592851748       10.0727882696
  C        43.6461101934       30.7717656794       10.8168448306
  C        44.5918146124       31.0930263251       11.8027781456
  C        45.1974606477       30.0874465219       12.5504078085
  C        44.8708987126       28.7343899309       12.3356105860
  C        43.9447831877       28.4201361653       11.3226484491
  C        43.3359339699       29.4253117351       10.5746884212
  C        45.4885114498       27.6551424522       13.1388214175
  C        45.4928699843       27.6809760200       14.5605039903
  C        44.8055650459       28.6889089597       15.3070950713
  C        14.8568837035        8.5631028680       15.2642347528
  C        14.8742594078        8.5624474162       12.4515978108
  C        42.9463302729       31.9613625552        5.8090973317
  C        43.6915560995       30.8853970177        5.0955402759
  C        44.6561348972       31.1913012799        4.1232089923
  C        45.2775578156       30.1717177733        3.4054350020
  C        44.9537627270       28.8213740298        3.6430049447
  C        44.0201147687       28.5237355628        4.6536340006
  C        43.3918759882       29.5404942130        5.3658353546
  C        45.5628926024       27.7240517617        2.8577570201
  C        45.5333674390       27.7175112221        1.4364600599
  C        44.8268380037       28.7075926554        0.6834907644
  C        35.0831905444       26.6419168820        0.7487560110
  C        35.0895001393       26.5934966284        3.5623508657
  C        18.1484522746        3.2464370008        5.7068426016
  C        17.4294194560        4.3434631578        4.9977822551
  C        16.4153303816        4.0520512008        4.0730677787
  C        15.7669120055        5.0826004656        3.3975988940
  C        16.1202764014        6.4279969959        3.6213763400
  C        17.1102697899        6.7114624147        4.5800600934
  C        17.7580625900        5.6826310451        5.2598580887
  C        15.4900475285        7.5237462558        2.8487930794
  C        15.4966060208        7.5074446020        1.4276404179
  C        16.1936074896        6.5058868602        0.6809546721
  H        10.6727044885       12.4675314318        3.9030120281
  H        11.6946470638       10.5524994576        2.6610152157
  H        15.3901576255       11.1663955218        4.7741527621
  H        14.3496643452       13.0695942125        6.0194082861
  H        13.3766533331       11.6313579605        1.2012511609
  H        50.3227605684       22.7490599149        3.9876300106
  H        49.3194202725       24.6234843235        2.6813733502
  H        45.6410102198       24.1594813380        4.8621525966
  H        46.6619307064       22.2884711419        6.1702426915
  H        47.6289851397       23.5755869349        1.2462520498
  H        14.8702586087        8.5873998934        4.6085659756
  H        50.2870357929       22.7029728076       12.0597460202
  H        49.2688441454       24.5758190880       13.3600008574
  H        45.6094574661       24.1074869771       11.1474290018
  H        46.6515939316       22.2520561165        9.8333545265
  H        47.6069296147       23.5514656141       14.7968772031
  H        40.6734985508       17.1520922092       11.4249246715
  H        48.6864920913       14.0953016799        7.7997932823
  H        10.6815341324       12.4675833329       12.0940510074
  H        11.6895836570       10.5255400919       13.2979660136
  H        15.3925026106       11.1572021323       11.2041531395
  H        14.3639224521       13.0859620311        9.9887567357
  H        13.3763627647       11.6222577166       14.7529705578
  H        47.9294268102       14.2210533545        9.7098284073
  H        47.7803124510       14.3765650748        6.4945636924
  H        49.0815337117       18.5515134755       10.8665520933
  H        10.4148735585       14.1345219864        7.9983048028
  H        24.5056701268        3.0332315401        3.9338022885
  H        25.6584702357        4.8892612294        2.7179633549
  H        23.2680336667        7.7594805192        4.8506520876
  H        22.1342751738        5.8929630531        6.0686384305
  H        23.8442967389        5.7928346809        1.2866578258
  H        36.3624655228       32.1799276212        3.9757013651
  H        35.2271842039       30.3551665912        2.7107905040
  H        37.4807624170       27.4325861761        4.9198340070
  H        38.5967354107       29.2699878910        6.1943714988
  H        36.9858072941       29.4486991697        1.3003958345
  H        25.7719376504        8.6243629385        4.6580907752
  H        36.4749678966       32.2487582336       12.1300381292
  H        35.3639525624       30.4382411999       13.4317688976
  H        37.5051225711       27.4907646865       11.1424163237
  H        38.5934400465       29.3132117804        9.8303598725
  H        37.0167132755       29.4758479683       14.8542144183
  H        46.1085490770       26.5869583956       11.3855412528
  H        44.6674599262       35.1156774165        7.8140788020
  H        24.4256931698        3.0316474895       12.0953569438
  H        25.5600939549        4.8649128825       13.3519586650
  H        23.1755952795        7.7645807361       11.2527691761
  H        22.0530077446        5.9183210317        9.9965897928
  H        23.8100472287        5.7875051242       14.8384087734
  H        44.9511171638       34.3880591238        9.6937394741
  H        44.8985377617       34.2055149924        6.4908223449
  H        40.6635965352       33.2071218498       10.8520519824
  H        23.1508837881        1.9567318844        8.0057527930
  H        25.8589948371       19.6055324707        3.8484724093
  H        23.6906048739       19.6590832881        2.6389981502
  H        22.3480504746       16.2488851129        4.8917028305
  H        24.5306396932       16.1915223751        6.0900618217
  H        23.7309045690       17.6553272120        1.2320838676
  H        35.0572407924       15.5119379242        3.8600620718
  H        37.1793444977       15.4700513136        2.5732849729
  H        38.7164055621       18.6698036492        5.0093323503
  H        36.5809014554       18.7186481713        6.2839577341
  H        37.2203384859       17.4064257632        1.2327658294
  H        20.3754354698       17.9567697810        4.6723321441
  H        35.1923361801       15.4826437191       12.0982041135
  H        37.3224584082       15.4365988782       13.3974192439
  H        38.7701232502       18.7915134925       11.1278205620
  H        36.6361948828       18.8247011916        9.8284521990
  H        37.2497382225       17.4208997849       14.7832905787
  H        35.1662002544       26.6864393972       11.4014730847
  H        28.5018692140       21.0903751036        7.9945939599
  H        25.7547090972       19.6248523770       12.1690467351
  H        23.5728465016       19.6772166905       13.3825468478
  H        22.2831522151       16.2006754813       11.2040852534
  H        24.4657277131       16.1660328125        9.9864201956
  H        23.7016172917       17.6461863374       14.7855410295
  H        28.9963224154       21.7264747296        9.7605792157
  H        29.1269363799       21.7568092902        6.6106750784
  H        32.1064514810       18.5894996672       10.9789306938
  H        27.3998882571       19.0764917937        8.0818832066
  H        14.8419639421       19.6415375040       12.1484096576
  H        17.0025757724       19.6871795961       13.3945334502
  H        18.3025182410       16.1903193500       11.2537362354
  H        16.1370968828       16.1605840074       10.0079940426
  H        16.9249083275       17.7025595688       14.8589231472
  H        46.1088596528       15.4688441923       12.0976649777
  H        43.9918686654       15.4270238707       13.4166651808
  H        42.5570470775       18.8227201246       11.1990652101
  H        44.6754011797       18.8412524974        9.8721133468
  H        44.0239123705       17.3408755082       14.8670696115
  H        20.2802713764       17.9154217596       11.4201653015
  H        46.0321874904       15.3929516273        4.0261675479
  H        43.8972489566       15.3329251438        2.7420803042
  H        42.4915174912       18.7587656138        4.9298829008
  H        44.6344012287       18.8077588363        6.2128773425
  H        43.9926834166       17.3083611981        1.3152591484
  H        46.1984529674       26.6822261756        4.6232934770
  H        52.7404935180       21.0622119600        8.1946104497
  H        14.8930083685       19.6767409104        3.8998065984
  H        17.0958535734       19.7481257881        2.7268263961
  H        18.3400357104       16.2256354697        4.8577356858
  H        16.1395009701       16.1795152183        6.0413500931
  H        16.9536384629       17.7171607549        1.3061061042
  H        52.3196917881       21.6721932969        6.2949715069
  H        52.0107079051       21.7001103078        9.4951765717
  H        49.0646617072       18.6063004700        5.2051145513
  H        13.2470481372       19.0165261736        7.9773751132
  H        29.9513527428       12.4578618937       12.2356104667
  H        28.8934294215       10.5219416923       13.4038185144
  H        25.2655020253       11.1675420941       11.1864262478
  H        26.3409081812       13.0907036588       10.0081710045
  H        27.1949205149       11.6594274737       14.7812777374
  H        30.9979007581       22.7681000580       12.0283558295
  H        32.0058797474       24.6427056335       13.3278459165
  H        35.6741196859       24.1803667767       11.1305233789
  H        34.6512313482       22.3105305070        9.8274962096
  H        33.6648097153       23.5864533216       14.7520074842
  H        25.7000633765        8.5823201850       11.4073427872
  H        30.9124363592       22.6523777258        3.8766263421
  H        31.9386166719       24.5010054690        2.5746652482
  H        35.5112043084       24.1923549979        4.9568501380
  H        34.4881341736       22.3232100299        6.2395128349
  H        33.6254511267       23.5667789737        1.2010607039
  H        40.5655979476       17.0795351517        4.6722418251
  H        32.5210407501       14.1267650401        8.3591323504
  H        29.9258723760       12.5661872568        3.8618142958
  H        28.9067934753       10.6595494906        2.6368773763
  H        25.2688927269       11.1617879192        4.8773285852
  H        26.2956464740       13.0750001897        6.0992605165
  H        27.2049580090       11.6794986952        1.2272661741
  H        33.2941403470       14.1780685010        6.4446520827
  H        33.4101098247       14.4318076074        9.6714719058
  H        32.2033483479       18.5927639658        5.2274651784
  H        30.2346748531       14.1860623150        8.1174737538
  H        16.1202110337        2.9627222841       12.1314905220
  H        14.9548571068        4.8196223990       13.3243953210
  H        17.3631605196        7.6857274802       11.2076771217
  H        18.5121231582        5.8180316825       10.0077011832
  H        16.7539547917        5.7396359473       14.7716851739
  H        44.8280722856       32.1401074502       11.9769477306
  H        45.9372597928       30.3410452299       13.3064598502
  H        43.6816936401       27.3781234073       11.1527996559
  H        42.5988187159       29.1900130433        9.8104874465
  H        44.2296851424       29.4362863367       14.7688032294
  H        14.8497444754        8.5452557843       11.3633973190
  H        44.8995311591       32.2340010545        3.9317183229
  H        46.0242702676       30.4128431140        2.6519850143
  H        43.7628015202       27.4840401989        4.8449173711
  H        42.6449964914       29.3176478841        6.1239015467
  H        44.2677871409       29.4701132447        1.2180358627
  H        35.0535216551       26.5995006745        4.6502541880
  H        36.6048375061       35.1334618415        8.1811289815
  H        16.1452775114        3.0123355436        3.9024790416
  H        14.9754690064        4.8554921576        2.6866124323
  H        17.3923823834        7.7471031410        4.7581418143
  H        18.5397544439        5.8930522135        5.9859067332
  H        16.7648871488        5.7555447708        1.2194162341
  H        36.2799541072       34.4802806596        6.2739429342
  H        36.3834377671       34.2079892745        9.5002849350
  H        40.5770604135       33.2001233163        5.1550026796
  H        17.4711567107        1.9458621791        7.9738971631
  H        28.9946271832       19.3539757328       12.5047331963
  H        29.9267383921       19.5779484673        3.1769858781
  H        31.9298894668       15.7025964993        3.2916789361
  H        31.1548905343       15.4938675004       12.5126020064
  H        28.1907369533       18.0157353936       14.9845168044
  H        29.3533046012       15.3554480807       14.7452653234
  H        31.8215215373       19.9722559165        1.6001930758
  H        33.2501086950       17.0398447734        1.3340563866
  H        32.4511045488       18.4196726821       14.2319835554
  H        18.8535808322        0.8692267319       12.3350594548
  H        40.5275407359       35.2294668395        3.9524634088
  H        42.3212634074       34.4159326587        3.5930472550
  H        22.0877765401        0.6924849477       12.3505837817
  H        11.5974369059       18.7123414238       12.3812914703
  H        52.2650457275       18.4301364155        3.6782035810
  H        49.2541733975       16.4792782903        3.5860314312
  H        10.1507458346       15.7985037913       12.2926033958
  H        50.8495515006       17.6923312669        3.9546597520
  H        10.0456739238       17.3945925206       12.0520599729
  H        20.2141541773        0.0018523679       12.0422548810
  H        39.1831769341       36.1244180354        3.6868291002
 Ni        30.8606775280       17.5708667515        2.1692379111
 Ni        31.2856120419       16.4941114202       -0.2446800779
 Ni        30.3065902747       18.8707116279       -0.1621237461
 Ni        30.0995064009       17.4304991197       13.3172914556
  O        10.6497611264       14.3650783474        5.4856637030
  O        12.6131688038       14.6574972213        6.5838206989
  O        49.1478834052       16.8460117090        7.9895082815
  O        50.3502160249       20.9362514920        5.6482566246
  O        48.3484994635       20.5934473179        6.6659283474
  O        11.0512327454       17.0539943572        6.5003689067
  O        50.3210348230       20.8817995199       10.4067338591
  O        48.3467608461       20.5868717821        9.3270052132
  O        49.5435912003       18.2485547432       10.0682026878
  O        12.3588217399       18.6244085048        7.9995634997
  O        48.6929366617       14.1487359127        6.7510778541
  O         8.2096734381       14.2101564745        9.3225319185
  O        10.7353735262       14.5065951294       10.6644044889
  O        12.5718616640       14.5827725142        9.3284511943
  O        22.8459333403        2.0451814859        5.4865604952
  O        21.6070576550        3.5939384621        6.5883271892
  O        42.0575746544       34.1367489710        7.9787522159
  O        37.9813643150       33.1356324400        5.5723768506
  O        39.2181544936       31.5757020435        6.6663282191
  O        20.3082274434        1.0393677529        6.5017866626
  O        38.0252174461       33.1870162982       10.4147485567
  O        39.2188053225       31.5837069587        9.3268076850
  O        40.6521962896       33.7690381031       10.0602174186
  O        18.2561555451        1.3751454543        7.9967503006
  O        44.6222707254       35.1004497378        6.7586568844
  O        24.2054112254       -0.0000354551        9.3208071155
  O        22.7530745562        2.0570599399       10.5838051588
  O        21.6249714487        3.5967284372        9.3434353221
  O        27.5907155920       18.6319850084        5.4053336815
  O        26.7702687211       16.9281606506        6.6615119055
  O        30.6705358704       19.3996940165        8.0738203103
  O        33.4677264286       16.3479786414        5.5810155435
  O        34.2558184096       18.1625007059        6.7324740728
  O        29.5827677372       17.0657728843        6.5858100610
  O        33.6146632034       16.3316997242       10.4118263214
  O        34.3035841047       18.2483737952        9.4063406634
  O        31.6515073467       18.3143795194       10.1660647760
  O        30.3292414455       15.1530554246        8.1349304817
  O        28.5498125744       21.0307288135        6.9096114516
  O        28.5135341957       20.9588498995        9.4080075138
  O        27.4544647448       18.6791788019       10.6568912156
  O        26.6956758192       16.9290488022        9.4115398268
  O        13.1482746323       18.6931577135       10.5875232280
  O        13.9195025898       16.9162088009        9.4050021594
  O        50.5954176094       19.3500582839        8.0200732212
  O        47.6849337934       16.3266036744       10.4168230615
  O        46.9525694721       18.1756791602        9.3242110110
  O        11.0694915135       17.0154969643        9.4898209976
  O        47.6741637462       16.3358325022        5.6528368357
  O        46.9260300830       18.2358647615        6.6639129689
  O        49.5686181447       18.3177611442        5.9821193513
  O        10.3184477754       15.1004367949        7.9969813171
  O        52.6706468631       21.0279904883        9.2418520773
  O        12.1468281787       20.8911996893        6.6730655338
  O        13.1105023438       18.6134113646        5.3251527056
  O        13.9581315303       16.9869510422        6.6652405122
  O        29.9893877938       14.4422378859       10.7350195106
  O        28.0889805834       14.6540992049        9.4946648083
  O        32.1389908347       16.8670617332        8.0952520968
  O        30.9642518259       20.9517356467       10.4083082361
  O        32.9461908936       20.6026438798        9.3424201652
  O        29.5699948254       17.0795543782        9.5795918677
  O        30.8425385294       20.8707506832        5.6511237823
  O        32.8647506297       20.5748810198        6.6672501880
  O        31.6063865738       18.2455692316        5.9079022146
  O        28.2868444605       18.6794383259        8.0766644964
  O        32.4965980085       14.2116826725        9.4034534951
  O        32.4024871630       14.2155512660        6.8295072198
  O        29.9013087742       14.5755740950        5.4106022687
  O        28.0580292692       14.5878442513        6.7454093752
  O        17.8891340047        1.9665100519       10.6628484353
  O        18.9562902446        3.5270541967        9.4078901732
  O        39.1686795612       34.1385773705        7.9970539420
  O        43.2802961123       33.0589669809       10.3316014571
  O        42.0347002160       31.5064215621        9.2415435354
  O        20.3175459369        1.0364890587        9.4803713333
  O        43.2761908627       33.1826345248        5.5749818732
  O        42.0053286848       31.5840514730        6.5830181269
  O        40.5790911502       33.7748472263        5.9356793349
  O        22.3670708031        1.3846094589        7.9977267587
  O        36.6725806861       35.0995866456        9.2335069751
  O        16.4453117087        0.0637737611        6.6680506555
  O        17.9363069575        2.0432190141        5.3264250749
  O        18.9192092035        3.5930387411        6.6659564324
  O        29.6130083044       18.9024035043        3.8319983852
  O        29.7449440342       18.9703791127       12.0109660827
  O        31.1775077757       16.0512830585        3.8220036270
  O        31.3390795289       16.3424268356       12.0618718905
  O        32.4073176627       16.5606985098        1.4042290525
  O        30.2017364185       15.6794381321       14.4024958281
  O        31.6010858604       18.0908539217       14.5680419868
  O        30.9711044549       19.5029480829        1.5774895339
  O        28.8942703938       18.5390428165       14.5668457982
  O        39.4567108483       35.2438113567        4.0019690696
  O        19.1412718326        0.0045842133       11.9907111581
  O        41.9699385999       35.1728161594        4.0873470909
  O        21.6914833949       -0.0694407835       11.8958223795
  O        51.3652043692       18.6142203230        4.0055905167
  O        10.7510762680       18.7474031751       11.9048850408
  O        50.0795958616       16.4129257298        4.0915885544
  O         9.5245764500       16.4830836992       11.9912803176
 Zr         9.2940154961       16.0534755437        6.1821592894
 Zr        49.8340031007       16.0070316206        9.7466441772
 Zr        22.0721136280        0.0281855749        6.1895641743
 Zr        42.4596709051       35.1513816645        9.8002503244
 Zr        29.6221988019       19.1182879501        6.3601484773
 Zr        29.5674865350       19.1789184633        9.9054497399
 Zr        11.0361165762       19.0518091753        9.8271180548
 Zr        11.0422318407       19.1546780932        6.2517394735
 Zr        31.3419098360       16.1069305156        9.9473550576
 Zr        31.4299187925       16.0373491986        6.3960299399
 Zr        18.5999827814       -0.0040648738        9.7638254682
 Zr        18.5055621780       -0.0105113396        6.2134712336
 Zr        12.2999093186       16.3240293390        7.9900656435
 Zr        48.6127324208       18.8321241277        8.0097792708
 Zr        20.3144096886        2.4711425986        7.9904659853
 Zr        40.6407256370       32.6840511625        7.9784111668
 Zr        28.3409877614       16.3386653823        8.0993399257
 Zr        32.6643160647       18.8666083214        8.0721185450
  H        29.8963847791       17.1288294026        0.9585358790
  H        30.5183801158       15.3134501389        3.9561629682
  H        28.6346799938       18.8189898914        3.7676962460
