     574
 i =      197, E =     -4778.8394881349
  C        11.8588139612       14.0534473270        5.7415299818
  C        12.4563332174       12.8905661911        5.0232589124
  C        11.7046264069       12.1715843489        4.0816369278
  C        12.2810410354       11.1094146131        3.3892812468
  C        13.6216420481       10.7396706509        3.6169850491
  C        14.3548246565       11.4433114058        4.5903939974
  C        13.7819097977       12.5082596625        5.2819200825
  C        14.2611809013        9.6490312922        2.8435695949
  C        14.2563864422        9.6569231670        1.4218722531
  C        13.7431470957       10.7590178139        0.6679755683
  C        49.1269554563       21.2331912030        5.8796644576
  C        48.5502445771       22.4011477703        5.1525363817
  C        49.3002142824       23.0683689903        4.1714358306
  C        48.7332704813       24.1075267995        3.4382628590
  C        47.4028076139       24.5093241132        3.6670505075
  C        46.6719538372       23.8605787076        4.6807149056
  C        47.2344045201       22.8156648082        5.4100417611
  C        46.7724955035       25.5869943994        2.8698095017
  C        46.7613798993       25.5573423294        1.4480536142
  C        47.2612524845       24.4422351385        0.7045388246
  C        14.8603676474        8.5706175471        0.7086008334
  C        14.8920766515        8.5971461851        3.5202130056
  C        49.1133171430       21.2035231684       10.1454438869
  C        48.5279890763       22.3649097231       10.8726084214
  C        49.2671468530       23.0255545447       11.8656134299
  C        48.6907855070       24.0601106793       12.5970529238
  C        47.3604211663       24.4569724098       12.3586853449
  C        46.6400934360       23.8121384819       11.3350546827
  C        47.2136695506       22.7762273122       10.6033055322
  C        46.7219014567       25.5318932161       13.1497129435
  C        46.7335321985       25.5281733031       14.5714150314
  C        47.2489574876       24.4289421019       15.3277795957
  C        40.6370419006       17.1411648014       15.3226023431
  C        40.6536956738       17.1721801287       12.5140127924
  C        11.8830386659       14.0865318493       10.2855235855
  C        12.4723188205       12.9107225720       10.9896922620
  C        11.7148603062       12.1776719509       11.9159798204
  C        12.2814379713       11.0951981733       12.5843576137
  C        13.6201888039       10.7212982746       12.3523647999
  C        14.3580712451       11.4366975105       11.3913602945
  C        13.7926658944       12.5178846035       10.7186871836
  C        14.2537946679        9.6245847216       13.1227993448
  C        14.2524965570        9.6445588865       14.5446391048
  C        13.7425851329       10.7534866841       15.2917211534
  C        22.5118799455        3.2448420344        5.7530996383
  C        23.2254669324        4.3507979046        5.0540392730
  C        24.2223620308        4.0725632650        4.1071823309
  C        24.8475721231        5.1133346501        3.4253085822
  C        24.4915873195        6.4546383238        3.6698420656
  C        23.5233499233        6.7243779256        4.6541928048
  C        22.8935435288        5.6855215637        5.3345096024
  C        25.0942464077        7.5624644989        2.8937215673
  C        25.0657246464        7.5549719551        1.4721991019
  C        24.3664684163        6.5534406026        0.7263204833
  C        38.2980397111       31.9288888286        5.8523536081
  C        37.5556549601       30.8414048071        5.1506067811
  C        36.5887913497       31.1509750409        4.1815669219
  C        35.9571088692       30.1349214919        3.4697773861
  C        36.2771491122       28.7832053664        3.7038169490
  C        37.2135039718       28.4809307864        4.7105661313
  C        37.8490610106       29.4960632943        5.4219614450
  C        35.6643554134       27.6973700155        2.9042662177
  C        35.7009044168       27.7146851042        1.4825894705
  C        36.4153947888       28.7145963141        0.7500760241
  C        25.6849466505        8.6266832737        0.7517471292
  C        25.6896170731        8.6388267905        3.5638882868
  C        38.3307198766       31.9620297545       10.1598034482
  C        37.6126705452       30.8907379900       10.9095956814
  C        36.6793616962       31.2037539655       11.9098814690
  C        36.0669034367       30.1890859921       12.6431555723
  C        36.3731298938       28.8350112889       12.4003666165
  C        37.2878362839       28.5318281673       11.3731085975
  C        37.9020135847       29.5431202773       10.6407680479
  C        35.7544139407       27.7392285040       13.1820905680
  C        35.7467994393       27.7362330172       14.6045379411
  C        36.4359821474       28.7258832380       15.3734968377
  C        46.1354940087       26.6207845728       15.2815643080
  C        46.0879698190       26.5802794548       12.4736749607
  C        22.4607778280        3.2560694085       10.2578011770
  C        23.1538331082        4.3650777365       10.9806566151
  C        24.1556464942        4.0801316339       11.9221623122
  C        24.7822974415        5.1110194468       12.6182195638
  C        24.4274112120        6.4566235990       12.3954802796
  C        23.4489200449        6.7347444419       11.4222354514
  C        22.8176038675        5.7042083493       10.7266460193
  C        25.0558833492        7.5558899231       13.1699516060
  C        25.0466470675        7.5509693391       14.5927820310
  C        24.3553822487        6.5526649162       15.3494231257
  C        26.6241080730       17.8593431801        5.7841524339
  C        25.3176430563       17.9022217753        5.0567834107
  C        25.0646081629       18.8963737990        4.0986824416
  C        23.8508084909       18.9218986565        3.4141010525
  C        22.8547251150       17.9555971725        3.6634745309
  C        23.1062796039       16.9822014921        4.6488856123
  C        24.3213739568       16.9521901574        5.3324555409
  C        21.5807712981       17.9452330441        2.8995782441
  C        21.5793363138       17.9249621808        1.4768148747
  C        22.7846786958       17.8043405086        0.7151439955
  C        34.4972791471       17.2220247769        5.9983972549
  C        35.7789703270       17.1731571003        5.2336425833
  C        35.9786729943       16.1847677810        4.2576131940
  C        37.1426814502       16.1749412542        3.4935464064
  C        38.1401941547       17.1483784264        3.6929401171
  C        37.9432735659       18.1191974181        4.6930064855
  C        36.7736670130       18.1380525327        5.4490031106
  C        39.3886121514       17.1500068335        2.8976814235
  C        39.3817059370       17.1558550411        1.4767047593
  C        38.1726180812       17.2655844659        0.7205860797
  C        20.3322615593       17.9411754223        0.7688538973
  C        20.3556930645       17.9476050299        3.5819370452
  C        34.4789151735       17.2453595798       10.1803714677
  C        35.7817654409       17.1730133199       10.9035390622
  C        35.9962541264       16.1868068512       11.8777782529
  C        37.1807373925       16.1696108065       12.6084157226
  C        38.1777461323       17.1381714187       12.3832100743
  C        37.9696828152       18.0996214097       11.3770330815
  C        36.7831308856       18.1216612398       10.6491388407
  C        39.4234578074       17.1567709682       13.1795309460
  C        39.3995531629       17.1621203374       14.6004015212
  C        38.1812984042       17.2680685295       15.3435589458
  C        35.1032127288       26.6615719155       15.3041968837
  C        35.1691870328       26.6682533106       12.4946800674
  C        26.5713233561       17.8268608137       10.3232703834
  C        25.2552906000       17.8701863926       11.0302956373
  C        24.9748462753       18.8963735834       11.9453087648
  C        23.7581243071       18.9204384995       12.6216921525
  C        22.7906516827       17.9192737516       12.4035914027
  C        23.0642790477       16.9173043468       11.4555540966
  C        24.2826444910       16.8907887411       10.7787530956
  C        21.5264637885       17.9043968082       13.1766432265
  C        21.5516046052       17.9040813458       14.5977590468
  C        22.7712922276       17.7957714483       15.3387091701
  C        14.0463824244       17.8283891611       10.2892894294
  C        15.3501022774       17.8843020372       11.0158591366
  C        15.6073333987       18.8883025088       11.9624670891
  C        16.8159250172       18.9085365106       12.6560022712
  C        17.8015640656       17.9275995533       12.4250782594
  C        17.5488486854       16.9473478724       11.4468350358
  C        16.3397548050       16.9226634745       10.7547470897
  C        19.0708966644       17.9117991335       13.1935577734
  C        19.0705805741       17.9142594419       14.6160656423
  C        17.8640746861       17.8167005575       15.3783349795
  C        46.8066081244       17.2199661401       10.1592774075
  C        45.5184528195       17.1630016963       10.9069106184
  C        45.3125182634       16.1898395238       11.8967202365
  C        44.1322354862       16.1783106136       12.6348089593
  C        43.1293416279       17.1399018733       12.4038950275
  C        43.3325425688       18.0925913905       11.3876042357
  C        44.5135280661       18.1081890468       10.6507639551
  C        41.8773928674       17.1561525083       13.1925724313
  C        41.8836471131       17.1564651370       14.6139459162
  C        43.0931978680       17.2532534312       15.3713033712
  C        20.3177161530       17.9291525306       15.3237582621
  C        20.2946746220       17.8884470640       12.5103579542
  C        46.7881090894       17.2318612400        5.8903359608
  C        45.4861568856       17.1305419072        5.1751416259
  C        45.2665529301       16.1354003748        4.2111709361
  C        44.0797332765       16.1157941952        3.4836050198
  C        43.0856050323       17.0882208208        3.7046983752
  C        43.2950697755       18.0524980550        4.7077118982
  C        44.4830198649       18.0787128404        5.4299940362
  C        41.8409563175       17.1168001643        2.9084629172
  C        41.8653562737       17.1339029372        1.4883882448
  C        43.0846281154       17.2396623917        0.7477879170
  C        46.1532843306       26.6371893525        0.7263248137
  C        46.1626217055       26.6561497801        3.5359542941
  C        14.0463565325       17.8324761075        5.7090480004
  C        15.3681426398       17.9088941291        5.0195623266
  C        15.6407908976       18.9250421237        4.0914496641
  C        16.8702607170       18.9646780914        3.4374570806
  C        17.8552556470       17.9873695056        3.6854372105
  C        17.5895396497       17.0003269319        4.6520545014
  C        16.3619937750       16.9601498661        5.3095260843
  C        19.1226032699       17.9642800557        2.9158922107
  C        19.0974955352       17.9398491290        1.4943559264
  C        17.8773653484       17.8281237394        0.7544732495
  C        28.8080751053       14.0934705430       10.3931493528
  C        28.1929027981       12.9208988347       11.0805334051
  C        28.9090415636       12.1885762184       12.0390206068
  C        28.3073040237       11.1147373700       12.6901132738
  C        26.9754308017       10.7496190068       12.4071842406
  C        26.2818997966       11.4621253863       11.4124399695
  C        26.8812195283       12.5360107471       10.7594682551
  C        26.3039676251        9.6710927246       13.1674048983
  C        26.2871191523        9.7003498118       14.5883792757
  C        26.7842224039       10.8164601165       15.3336187639
  C        32.1787885726       21.2483097992       10.1433061359
  C        32.7720150379       22.4156922305       10.8626778638
  C        32.0149975529       23.1014770497       11.8252628247
  C        32.5798866060       24.1428388643       12.5551377965
  C        33.9186191894       24.5265507597       12.3447698438
  C        34.6588724121       23.8591402985       11.3506428827
  C        34.0956894852       22.8127115448       10.6218208244
  C        34.5411112388       25.6030595737       13.1494375110
  C        34.5137865871       25.5796581730       14.5712350312
  C        33.9880072473       24.4705324770       15.3063086148
  C        25.6798538264        8.6210494421       15.3070488259
  C        25.6709776791        8.6182099752       12.4938152005
  C        32.0787027817       21.2070725117        5.8786210653
  C        32.6442696924       22.3719934990        5.1351384510
  C        31.9061252011       23.0218759336        4.1337978745
  C        32.4754850138       24.0634004352        3.4030107594
  C        33.7967986636       24.4843891858        3.6528309439
  C        34.5162892662       23.8473330458        4.6826093497
  C        33.9522809348       22.8028562018        5.4094439670
  C        34.4349926347       25.5703134908        2.8720490827
  C        34.4579414571       25.5635745705        1.4496741197
  C        33.9601322599       24.4633162574        0.6828665167
  C        40.6274584108       17.1335572282        0.7665826055
  C        40.6120774495       17.1457796431        3.5755667395
  C        28.7455088919       14.0718510216        5.8145566104
  C        28.1275589179       12.9327504043        5.0711005363
  C        28.8585148675       12.2329500241        4.0994865734
  C        28.2737983793       11.1776889708        3.4036656611
  C        26.9411968677       10.7946697938        3.6554143794
  C        26.2256012041       11.4832550436        4.6525265411
  C        26.8090295891       12.5399640131        5.3489993825
  C        26.2977732742        9.7030358188        2.8856652231
  C        26.2854937567        9.7163472675        1.4639935450
  C        26.7817753561       10.8256504615        0.7095758595
  C        18.1354254528        3.1810423906       10.3171394708
  C        17.4062552793        4.2782838346       11.0158642381
  C        16.3903614676        3.9999495985       11.9431925685
  C        15.7426448689        5.0399555782       12.6066493312
  C        16.0947491969        6.3836449637       12.3670818490
  C        17.0843691825        6.6531503061       11.4035658996
  C        17.7334626144        5.6157775155       10.7385563717
  C        15.4703445890        7.4913271183       13.1300913925
  C        15.4856293241        7.4906468908       14.5518025295
  C        16.1872773815        6.4970848237       15.3049587935
  C        42.9458169155       31.8596028348       10.0728248205
  C        43.6461912008       30.7718826833       10.8168241612
  C        44.5915050577       31.0932439523       11.8030810326
  C        45.1971955584       30.0877292067       12.5508154308
  C        44.8710268840       28.7346347063       12.3357635182
  C        43.9454659907       28.4202445034       11.3223170033
  C        43.3366833366       29.4253698538       10.5742161712
  C        45.4886169746       27.6553297707       13.1389500278
  C        45.4927473501       27.6808984274       14.5606525340
  C        44.8056259878       28.6888963530       15.3073151389
  C        14.8565905720        8.5630907135       15.2641735599
  C        14.8750738501        8.5630913284       12.4514998274
  C        42.9464067303       31.9616305117        5.8090010154
  C        43.6917144795       30.8854526992        5.0955696512
  C        44.6562064282       31.1913835781        4.1231844624
  C        45.2777792394       30.1718117128        3.4054682636
  C        44.9541682801       28.8214827155        3.6432356466
  C        44.0208189200       28.5237884223        4.6541292602
  C        43.3925173574       29.5405485872        5.3662937641
  C        45.5631628700       27.7240822245        2.8579459012
  C        45.5333447839       27.7173429896        1.4366468160
  C        44.8269369857       28.7075262954        0.6837103020
  C        35.0773085115       26.6520605061        0.7496062397
  C        35.0496101545       26.6246268707        3.5598582632
  C        18.1486464062        3.2470402211        5.7065456575
  C        17.4301481307        4.3438802585        4.9972038672
  C        16.4147217782        4.0526692075        4.0738572118
  C        15.7664659497        5.0833420683        3.3984852099
  C        16.1214632492        6.4285264525        3.6209857074
  C        17.1131672351        6.7118626550        4.5779113116
  C        17.7607910991        5.6829018790        5.2576580367
  C        15.4908855295        7.5242251210        2.8485970257
  C        15.4967117486        7.5075802050        1.4274671975
  C        16.1935145251        6.5059037749        0.6807723074
  H        10.6724735703       12.4656483084        3.9046531951
  H        11.6947566683       10.5508685283        2.6627899187
  H        15.3918966461       11.1688160079        4.7720562235
  H        14.3514331713       13.0715588008        6.0172512717
  H        13.3761307344       11.6311390697        1.2012861840
  H        50.3228619978       22.7482074688        3.9865684549
  H        49.3197082547       24.6227232666        2.6806044351
  H        45.6425436112       24.1615151279        4.8640647480
  H        46.6634832954       22.2905271033        6.1722730294
  H        47.6298114219       23.5758603655        1.2462087205
  H        14.8725777280        8.5884331171        4.6085236401
  H        50.2871650980       22.7026572424       12.0605908763
  H        49.2691304597       24.5755404556       13.3606085506
  H        45.6107485110       24.1094973020       11.1458502357
  H        46.6529231286       22.2541274770        9.8316477333
  H        47.6077272993       23.5518260965       14.7968731263
  H        40.6588657424       17.1405667657       11.4261962341
  H        48.6871664110       14.0948154267        7.8000653957
  H        10.6814284885       12.4668243755       12.0934744843
  H        11.6896818704       10.5248749286       13.2971393100
  H        15.3934460680       11.1586894030       11.2052841275
  H        14.3649794987       13.0871026422        9.9900170191
  H        13.3757539092       11.6221090852       14.7531049991
  H        47.9302240594       14.2181790928        9.7108954962
  H        47.7800942197       14.3735159371        6.4953844131
  H        49.0843652754       18.5526499431       10.8676246867
  H        10.4163737470       14.1342270754        7.9987284897
  H        24.4848376329        3.0344636712        3.9157839386
  H        25.6207193047        4.8973575838        2.6911347930
  H        23.2413662547        7.7568869531        4.8496919724
  H        22.1236642680        5.8845826298        6.0759737921
  H        23.8073553042        5.7952037593        1.2667629158
  H        36.3574680322       32.1956778726        3.9877264608
  H        35.2082085935       30.3796645369        2.7197113473
  H        37.4685249244       27.4401831957        4.8995300280
  H        38.5974958360       29.2694884653        6.1777107615
  H        36.9790358375       29.4625152733        1.3000635220
  H        25.7264086547        8.6218070472        4.6516542139
  H        36.4532314019       32.2488183310       12.1091603078
  H        35.3363067365       30.4384698594       13.4095054446
  H        37.5380695795       27.4908462480       11.1794251051
  H        38.6287589243       29.3130789974        9.8654071446
  H        37.0164395548       29.4820721113       14.8527235231
  H        46.1094886849       26.5877599135       11.3856395136
  H        44.6683670236       35.1162708005        7.8139353824
  H        24.4340168725        3.0421834597       12.0900277071
  H        25.5627653328        4.8830118037       13.3410269102
  H        23.1634638748        7.7690049081       11.2410797066
  H        22.0463179052        5.9163578657        9.9898374270
  H        23.7872477784        5.7944102524       14.8184065898
  H        44.9540417798       34.3906016047        9.6953397403
  H        44.9019461933       34.2068668192        6.4906525196
  H        40.6666084987       33.2095553874       10.8533258070
  H        23.1502843565        1.9582190929        8.0052462056
  H        25.8336650519       19.6415690828        3.9073775043
  H        23.6580401483       19.7008951711        2.6794479783
  H        22.3503138926       16.2257391122        4.8497123692
  H        24.5256487837       16.1874963480        6.0783367048
  H        23.7251527710       17.6868662338        1.2455925728
  H        35.2034537217       15.4365159327        4.1092227313
  H        37.2979668660       15.4025588417        2.7432649669
  H        38.7073263488       18.8780095599        4.8489564115
  H        36.6021867875       18.9019445778        6.2039202193
  H        37.2334622398       17.3778752433        1.2549068744
  H        20.3631352778       17.9869825597        4.6698270327
  H        35.2152055315       15.4516492650       12.0573443352
  H        37.3482703703       15.4016256603       13.3604233051
  H        38.7348475491       18.8525591865       11.1996394769
  H        36.5991349316       18.8800904692        9.8917869946
  H        37.2482811828       17.3820525698       14.7992961064
  H        35.1560007689       26.6908627462       11.4066399168
  H        28.5059753658       21.0857055225        7.9660849853
  H        25.7216117733       19.6717833770       12.1016452068
  H        23.5393876024       19.7201837275       13.3261682747
  H        22.3250968935       16.1379794602       11.2815102169
  H        24.5096473712       16.1065744505       10.0603393238
  H        23.7014660033       17.6722471043       14.7920884386
  H        29.0098907729       21.7205667371        9.7586328839
  H        29.1462728620       21.7497928970        6.6134144178
  H        32.1071541970       18.5829802232       10.9709338345
  H        27.3984227397       19.0692068699        8.0746982886
  H        14.8496916006       19.6484636011       12.1392969322
  H        17.0117833341       19.6935577326       13.3832661257
  H        18.2991916290       16.1818966726       11.2596318027
  H        16.1332585195       16.1527765237       10.0150790033
  H        16.9212933280       17.6991032235       14.8520211036
  H        46.0942860684       15.4565862742       12.0804506164
  H        43.9717025965       15.4163579872       13.3943408525
  H        42.5655350046       18.8425840288       11.2059775620
  H        44.6882817000       18.8577809560        9.8825888698
  H        44.0339840575       17.3700428930       14.8410135115
  H        20.2881977929       17.9115413889       11.4220642801
  H        46.0414987032       15.3932150353        4.0337697789
  H        43.9098138669       15.3448727014        2.7351797557
  H        42.5306532897       18.8064573875        4.8834743541
  H        44.6690186614       18.8417920971        6.1816604719
  H        44.0188594228       17.3448810778        1.2917212587
  H        46.1996052382       26.6827518188        4.6233925119
  H        52.7411755357       21.0625907762        8.1946950392
  H        14.8792563284       19.6776122810        3.8991369714
  H        17.0802654634       19.7556959677        2.7207146564
  H        18.3411313174       16.2392689887        4.8516406973
  H        16.1419651939       16.1849407486        6.0395021160
  H        16.9444433980       17.7193330247        1.2993579478
  H        52.3222521916       21.6732133763        6.2943610283
  H        52.0130754246       21.7018961911        9.4956304050
  H        49.0681596559       18.6080820860        5.2041345742
  H        13.2477799879       19.0161389658        7.9773945803
  H        29.9352620986       12.4749230700       12.2584685585
  H        28.8640441310       10.5456402899       13.4314243674
  H        25.2530972731       11.1895646940       11.1861178219
  H        26.3437779354       13.1070544052       10.0063596177
  H        27.1430759170       11.6875607471       14.7939205770
  H        30.9865946970       22.7923431857       11.9956208502
  H        31.9868561377       24.6738557824       13.2965615289
  H        35.6950626376       24.1455412159       11.1823707534
  H        34.6730688674       22.2726222963        9.8748470127
  H        33.6301313435       23.6040072801       14.7578217060
  H        25.7038676607        8.5972299121       11.4059121865
  H        30.8895566114       22.6925215968        3.9306107301
  H        31.8945347164       24.5669641715        2.6334222253
  H        35.5392459929       24.1594936679        4.8825451327
  H        34.5148808163       22.2898801770        6.1859124153
  H        33.5801728002       23.5909588182        1.2067728431
  H        40.6062459588       17.1108807619        4.6632593696
  H        32.5140490458       14.1325881851        8.2653741731
  H        29.8882963723       12.5256412070        3.9092167949
  H        28.8490519096       10.6315464554        2.6592390354
  H        25.1939085882       11.2012962861        4.8526956041
  H        26.2537108514       13.0871594692        6.1070392087
  H        27.1374857308       11.7038718216        1.2408324739
  H        33.3171773781       14.2331612332        6.4765644120
  H        33.4108089482       14.4069047761        9.6064725882
  H        32.1805114313       18.5167824480        5.2109323394
  H        30.2130414011       14.1835680431        8.0808473675
  H        16.1182084292        2.9634537769       12.1294868105
  H        14.9530701469        4.8206264772       13.3221864867
  H        17.3670458986        7.6859976481       11.2106564947
  H        18.5157353413        5.8184133495       10.0109535432
  H        16.7539457550        5.7398391255       14.7714420298
  H        44.8275941518       32.1403508996       11.9774025004
  H        45.9369249052       30.3415526694       13.3068729579
  H        43.6830649846       27.3781359632       11.1519766123
  H        42.6003413061       29.1900103270        9.8092902939
  H        44.2302969103       29.4366922446       14.7690210835
  H        14.8513824843        8.5463232860       11.3632778431
  H        44.8996256528       32.2340799154        3.9316450526
  H        46.0246171965       30.4130874074        2.6521781664
  H        43.7640500090       27.4840395480        4.8458449249
  H        42.6461410530       29.3177529523        6.1248622643
  H        44.2684812453       29.4704451432        1.2183036956
  H        35.0048747178       26.6347313750        4.6472902118
  H        36.6053223195       35.1341827521        8.1805781115
  H        16.1434134726        3.0131207072        3.9043376972
  H        14.9739737569        4.8565881468        2.6885577712
  H        17.3970690918        7.7472785214        4.7544821609
  H        18.5439880253        5.8933153820        5.9820885158
  H        16.7650859435        5.7557729333        1.2192221675
  H        36.2790106272       34.4822447958        6.2732564998
  H        36.3813799269       34.2088907793        9.4992540658
  H        40.5794399172       33.2021623995        5.1538282528
  H        17.4709768808        1.9474412635        7.9741036823
  H        29.0948247771       19.5056185146       12.4909638378
  H        30.1098050885       19.6063593415        3.4927373950
  H        31.3670912457       15.3001039809        3.8371916657
  H        31.2195980533       15.6067270914       12.5134387892
  H        27.9655340710       18.7028504631       14.5923800044
  H        29.3149400478       15.2527147722       14.1595601686
  H        31.7618292681       19.6607709588        1.4862413076
  H        32.2031206074       16.6890517448        1.7651428672
  H        28.8235815308       16.0256154858        1.6805509409
  H        32.3402787269       18.3487157572       14.6000005242
  H        18.8540032661        0.8691192427       12.3353286413
  H        40.5281708976       35.2289418312        3.9520202014
  H        42.3243669575       34.4192175672        3.5902570246
  H        22.0876368945        0.6921344901       12.3514552270
  H        11.5968230679       18.7128825218       12.3826524843
  H        52.2648845381       18.4310644205        3.6770959939
  H        49.2552137409       16.4768822251        3.5845240639
  H        10.1495253458       15.7981798687       12.2930709849
  H        50.8500306776       17.6923772706        3.9542729306
  H        10.0458293011       17.3944126643       12.0519884190
  H        20.2154550776        0.0023571617       12.0418426043
  H        39.1839516716       36.1245890765        3.6864719169
 Ni        30.1859110822       17.2284916562        3.2437811272
 Ni        30.6039901002       16.4519488527       -0.1622137390
 Ni        30.0588489266       19.1559203266       -0.0832626570
 Ni        30.2217991769       17.5538873769       13.1589761195
  O        10.6499899851       14.3650695908        5.4858333835
  O        12.6131857170       14.6575231222        6.5838946509
  O        49.1483375562       16.8458484412        7.9898198187
  O        50.3503709882       20.9357499583        5.6480197888
  O        48.3486414646       20.5934031290        6.6659187032
  O        11.0519008403       17.0537445261        6.5007073384
  O        50.3211173387       20.8817006580       10.4068507049
  O        48.3468050369       20.5868897796        9.3272235437
  O        49.5438783503       18.2484376641       10.0683199438
  O        12.3592216761       18.6245855246        7.9996791686
  O        48.6933129090       14.1484732820        6.7513451981
  O         8.2099073341       14.2103251074        9.3225283683
  O        10.7353964085       14.5067607287       10.6643166573
  O        12.5718135934       14.5828290943        9.3284585123
  O        22.8445769508        2.0434929147        5.4871839884
  O        21.6052793798        3.5921081226        6.5899194562
  O        42.0581475539       34.1374120295        7.9789138936
  O        37.9812786065       33.1374422036        5.5726604046
  O        39.2171425470       31.5751454603        6.6657966928
  O        20.3084726150        1.0396114597        6.5021064147
  O        38.0248259096       33.1859888586       10.4153451481
  O        39.2184839195       31.5831225665        9.3273749743
  O        40.6523196953       33.7693063268       10.0600668583
  O        18.2555664810        1.3761405510        7.9967851204
  O        44.6222307165       35.1005574340        6.7587523847
  O        24.2054215066        0.0000172403        9.3207603540
  O        22.7529601199        2.0578423745       10.5838517203
  O        21.6243711641        3.5959460514        9.3425660684
  O        27.4948417328       18.7517739669        5.5007218443
  O        26.7658648084       16.9310434085        6.6559236036
  O        30.6668791077       19.4054467925        8.0555360354
  O        33.6731063487       16.2681038974        5.8286059761
  O        34.3096618287       18.2472638361        6.7452745866
  O        29.5764716665       17.0645849182        6.5774200219
  O        33.6230284224       16.3280782983       10.4101237433
  O        34.3060936520       18.2484311598        9.4079080068
  O        31.6525782572       18.3182670223       10.1551318870
  O        30.3195352183       15.1486742632        8.0962891186
  O        28.5523346783       21.0335888832        6.9002826698
  O        28.5125226494       20.9600301071        9.4124044498
  O        27.4563273622       18.6788670584       10.6596184484
  O        26.6939262940       16.9285071551        9.4129149162
  O        13.1487489767       18.6929042788       10.5874746931
  O        13.9194397833       16.9162025485        9.4050793494
  O        50.5966260629       19.3503910444        8.0205428949
  O        47.6835972242       16.3269935074       10.4172531648
  O        46.9524883523       18.1761236090        9.3241657744
  O        11.0699706279       17.0153884740        9.4896441622
  O        47.6766836840       16.3350831496        5.6533698228
  O        46.9304872314       18.2356996324        6.6661224825
  O        49.5690595865       18.3176776588        5.9823535742
  O        10.3187463144       15.1000544391        7.9970898038
  O        52.6707987926       21.0278879575        9.2418398073
  O        12.1468625526       20.8912043286        6.6732223005
  O        13.1083973783       18.6136515684        5.3255720309
  O        13.9576551755       16.9871773200        6.6651152387
  O        29.9919512607       14.4438469039       10.7350203222
  O        28.0893117480       14.6542096497        9.4950473528
  O        32.1431019173       16.8659776159        8.1068511150
  O        30.9667984511       20.9573556957       10.4056318649
  O        32.9481993779       20.6068575963        9.3400303855
  O        29.5682903377       17.0752757271        9.5771012597
  O        30.8526995059       20.8902763465        5.6556857834
  O        32.8700310003       20.5901281557        6.6636505256
  O        31.6882453051       18.2441391299        6.0004337483
  O        28.2862884194       18.6762274431        8.0740530815
  O        32.4944504256       14.2121360725        9.3349873259
  O        32.4110651838       14.2015275932        6.8282052688
  O        29.9210217497       14.4382284411        5.4925872557
  O        28.0408716955       14.5893094710        6.7531932764
  O        17.8892530570        1.9666414411       10.6628142114
  O        18.9562567748        3.5271275962        9.4080040488
  O        39.1686099800       34.1387035733        7.9971494639
  O        43.2802171744       33.0589388429       10.3316919756
  O        42.0343997144       31.5064595940        9.2415957954
  O        20.3177578466        1.0368034564        9.4800720157
  O        43.2760418644       33.1825091406        5.5748746360
  O        42.0051868519       31.5840676297        6.5829857614
  O        40.5789586315       33.7749659792        5.9358502692
  O        22.3673965177        1.3846494265        7.9979134199
  O        36.6727743459       35.0997620125        9.2332622627
  O        16.4456396296        0.0643053615        6.6682815939
  O        17.9365111457        2.0433611909        5.3263971018
  O        18.9189656332        3.5931238191        6.6659423201
  O        29.7840370476       18.9054480254        4.0921265433
  O        29.7894560407       19.0451164967       11.9887109032
  O        31.5105724339       16.1826934028        4.2267749427
  O        31.3881144715       16.4197855271       11.9925124066
  O        31.2504795570       16.6336860093        1.5821190006
  O        28.7661431321       15.8200031420        0.6732952028
  O        30.1525770581       15.7459377028       14.1516681786
  O        31.4151466209       18.0923518426       14.7444625002
  O        30.8016197899       19.7885522421        1.4143441644
  O        28.9297394781       18.6031132422       14.5630178065
  O        39.4568800964       35.2438652979        4.0019612654
  O        19.1418606615        0.0046800655       11.9904868454
  O        41.9695176294       35.1726816323        4.0871586832
  O        21.6912507399       -0.0693828634       11.8959027245
  O        51.3651427143       18.6142681632        4.0054042736
  O        10.7511233719       18.7471775765       11.9049425936
  O        50.0796858974       16.4128120558        4.0917149595
  O         9.5239181022       16.4831443207       11.9912482497
 Zr         9.2973314909       16.0525239360        6.1825342837
 Zr        49.8366123416       16.0065245048        9.7463127359
 Zr        22.0735189828        0.0304707289        6.1887845812
 Zr        42.4611285292       35.1539806379        9.8009294892
 Zr        29.5944272646       19.0947443983        6.2729658562
 Zr        29.5817682116       19.1793367001        9.8406795199
 Zr        11.0384052582       19.0517688630        9.8277577479
 Zr        11.0443389217       19.1546350672        6.2509219236
 Zr        31.3548981804       16.1012790802        9.8891101315
 Zr        31.4168137182       16.0057412078        6.3576234359
 Zr        18.6014437077       -0.0008994729        9.7634046258
 Zr        18.5068720843       -0.0072725273        6.2136875401
 Zr        12.3024895548       16.3234964950        7.9901839757
 Zr        48.6175449763       18.8333089294        8.0105646689
 Zr        20.3156208255        2.4741149577        7.9904985619
 Zr        40.6435414016       32.6874673631        7.9780016048
 Zr        28.3419773252       16.3398515229        8.0768084384
 Zr        32.6366527968       18.8485150405        8.0627575857
  H        28.8827962210       16.4039657925        3.0207797642
  H        28.0698361017       16.4164919393        0.3477999056
