     578
 i =      263, E =     -4781.1006975687
  C        11.8589015323       14.0534344950        5.7415432936
  C        12.4563715932       12.8904503369        5.0233817796
  C        11.7046402623       12.1714704435        4.0817763575
  C        12.2810035861       11.1092304114        3.3894840850
  C        13.6216636397       10.7396041942        3.6170302295
  C        14.3548672320       11.4432115402        4.5904526645
  C        13.7819891486       12.5082105455        5.2819324454
  C        14.2611849884        9.6489509356        2.8436157602
  C        14.2562883025        9.6567986606        1.4219141093
  C        13.7428818427       10.7588313444        0.6680365140
  C        49.1268930812       21.2332442841        5.8797553273
  C        48.5501436449       22.4012248351        5.1525621665
  C        49.3000908437       23.0684757395        4.1714938982
  C        48.7331335150       24.1076163439        3.4382876724
  C        47.4026583267       24.5093208032        3.6670872113
  C        46.6717888208       23.8605252247        4.6806957304
  C        47.2342828660       22.8156361124        5.4100279905
  C        46.7723483317       25.5870022066        2.8698558829
  C        46.7610996973       25.5573208966        1.4481032110
  C        47.2608164548       24.4421258610        0.7046152612
  C        14.8604103998        8.5705829422        0.7086217429
  C        14.8922818336        8.5971775389        3.5202473906
  C        49.1133326551       21.2035582912       10.1454917560
  C        48.5279714578       22.3649360703       10.8727892883
  C        49.2671650920       23.0256875859       11.8656806810
  C        48.6907945928       24.0602529482       12.5971257145
  C        47.3603836287       24.4569576718       12.3588306399
  C        46.6399885352       23.8120241964       11.3353274114
  C        47.2135927094       22.7760987136       10.6036131064
  C        46.7218880250       25.5319501811       13.1497975450
  C        46.7332834988       25.5281570470       14.5714977633
  C        47.2485753924       24.4288593094       15.3278547530
  C        40.6414023138       17.1637471998       15.3160403026
  C        40.6511731536       17.1756316918       12.5077304266
  C        11.8830534242       14.0864858551       10.2855603746
  C        12.4723994109       12.9107343261       10.9897553989
  C        11.7148232704       12.1774364824       11.9157487019
  C        12.2814567259       11.0950043313       12.5841519705
  C        13.6203373414       10.7213897154       12.3524406592
  C        14.3583424877       11.4370653682       11.3917393122
  C        13.7928874077       12.5181897015       10.7190107559
  C        14.2539791635        9.6246692965       13.1228397386
  C        14.2524460583        9.6445001512       14.5446778474
  C        13.7423305994       10.7533183887       15.2917808849
  C        22.5123209889        3.2461060666        5.7537120679
  C        23.2241648987        4.3549919048        5.0577427542
  C        24.2222580292        4.0838668445        4.1099992585
  C        24.8429628448        5.1295805218        3.4310970719
  C        24.4814063509        6.4687974263        3.6794457221
  C        23.5128401614        6.7312460969        4.6653303730
  C        22.8876112365        5.6878087359        5.3425985559
  C        25.0736906722        7.5827203269        2.9036734297
  C        25.0348468296        7.5789012000        1.4823854966
  C        24.3398986446        6.5733055235        0.7379523720
  C        38.2982615848       31.9278859015        5.8521328881
  C        37.5558282393       30.8388639356        5.1502437359
  C        36.5878635697       31.1469037044        4.1818178905
  C        35.9560493408       30.1300373768        3.4707991730
  C        36.2767513175       28.7784289333        3.7048750867
  C        37.2146161140       28.4774948497        4.7106387660
  C        37.8502104863       29.4936252405        5.4211821210
  C        35.6643821098       27.6919725685        2.9045602481
  C        35.7042587618       27.7085668834        1.4826208919
  C        36.4200159341       28.7084960035        0.7511244351
  C        25.6392679732        8.6582561936        0.7612450633
  C        25.6669882496        8.6608172417        3.5730607533
  C        38.3315099066       31.9621889300       10.1599363747
  C        37.6153344231       30.8892861533       10.9104899224
  C        36.6808024062       31.1999035088       11.9102216030
  C        36.0708602267       30.1835575676       12.6435610979
  C        36.3810416145       28.8304221302       12.4009045006
  C        37.2973026702       28.5293959375       11.3745390144
  C        37.9089180469       29.5424456096       10.6424436324
  C        35.7642265914       27.7328060006       13.1817797000
  C        35.7560267732       27.7290669802       14.6041434134
  C        36.4431243217       28.7191470489       15.3745299320
  C        46.1353519167       26.6208382463       15.2816255469
  C        46.0881015874       26.5803998383       12.4737342223
  C        22.4596471034        3.2577878685       10.2601358923
  C        23.1470682289        4.3690697462       10.9857001203
  C        24.1416951768        4.0893804090       11.9366108347
  C        24.7612775132        5.1237355841       12.6345912242
  C        24.4074308954        6.4686679003       12.4047133337
  C        23.4365786695        6.7412042010       11.4219375666
  C        22.8118621278        5.7074422153       10.7250304709
  C        25.0277182098        7.5732665356       13.1796213805
  C        25.0108055792        7.5737900225       14.6027961522
  C        24.3256957529        6.5724308379       15.3609700565
  C        26.6284148579       17.8582365766        5.7404383922
  C        25.3264094398       17.9141631675        5.0125622167
  C        25.0566586866       18.9209889207        4.0727658981
  C        23.8354956697       18.9476557765        3.4013776482
  C        22.8500139862       17.9703532889        3.6480155525
  C        23.1173061990       16.9844854334        4.6161039160
  C        24.3383725868       16.9538219229        5.2862064523
  C        21.5728492944       17.9572671977        2.8915927172
  C        21.5731306932       17.9286730550        1.4700061521
  C        22.7791735819       17.7951913935        0.7123794822
  C        34.4992642148       17.2297853936        5.9631514561
  C        35.7875001047       17.1876265506        5.2137547856
  C        36.0008684432       16.1985978013        4.2409367367
  C        37.1684985380       16.1972442154        3.4844826965
  C        38.1556547751       17.1796725463        3.6879302493
  C        37.9485420069       18.1481731472        4.6879500891
  C        36.7748214274       18.1585239998        5.4373110619
  C        39.4027527951       17.1880735133        2.8927683442
  C        39.3914817464       17.1908142181        1.4720326331
  C        38.1803802387       17.3013621260        0.7193540224
  C        20.3270940970       17.9450864513        0.7617895308
  C        20.3493303268       17.9606345108        3.5756105397
  C        34.4804215245       17.2424782771       10.1810092124
  C        35.7803800251       17.1757952253       10.9064016312
  C        35.9902402033       16.1989218105       11.8909650807
  C        37.1750970304       16.1845758527       12.6207175430
  C        38.1757697543       17.1464242813       12.3836120777
  C        37.9716020346       18.0985785030       11.3679034035
  C        36.7846542875       18.1184478655       10.6413792461
  C        39.4228009500       17.1680258770       13.1766464614
  C        39.4021119381       17.1839331156       14.5972602225
  C        38.1858623107       17.2980914289       15.3423561613
  C        35.1125133951       26.6538025569       15.3025111778
  C        35.1804065958       26.6614535518       12.4935576383
  C        26.5714449389       17.8264399686       10.3254962153
  C        25.2590478291       17.8699527380       11.0341589733
  C        25.0073232489       18.8618552818       11.9941937269
  C        23.7875737900       18.8916170787       12.6642948616
  C        22.7933513655       17.9275421161       12.4016810130
  C        23.0427316052       16.9585525708       11.4129114201
  C        24.2616667391       16.9279833501       10.7385744669
  C        21.5286648415       17.9107945571       13.1721168625
  C        21.5506299277       17.9009058953       14.5935308833
  C        22.7678310319       17.7803714403       15.3364584429
  C        14.0466546111       17.8297328746       10.2876395366
  C        15.3516485285       17.8891465789       11.0108766629
  C        15.6081530625       18.8945513312       11.9561009301
  C        16.8175419760       18.9172789888       12.6479527553
  C        17.8040454685       17.9375080875       12.4163750985
  C        17.5525072406       16.9567038172       11.4384872212
  C        16.3425456634       16.9293115327       10.7482497317
  C        19.0724480051       17.9211386341       13.1857623692
  C        19.0692951984       17.9195613242       14.6081988201
  C        17.8618398497       17.8233248071       15.3693106256
  C        46.8065639387       17.2188283786       10.1573834644
  C        45.5167745594       17.1601983577       10.9009473418
  C        45.3093800144       16.1877078872       11.8909606418
  C        44.1279534058       16.1773277938       12.6269969573
  C        43.1264478280       17.1395617397       12.3933713997
  C        43.3301004359       18.0900527221       11.3753192210
  C        44.5122448550       18.1046337571       10.6407917259
  C        41.8761492170       17.1614313448       13.1834433352
  C        41.8861465037       17.1709567878       14.6044688394
  C        43.0979161359       17.2685467223       15.3581542451
  C        20.3153093513       17.9306771178       15.3171461861
  C        20.2970444998       17.9011042587       12.5045403606
  C        46.7913013945       17.2337923029        5.8887506356
  C        45.4925946552       17.1402914443        5.1688260425
  C        45.2724597205       16.1499475352        4.2002594883
  C        44.0878319441       16.1384783258        3.4694033771
  C        43.0979490091       17.1145925166        3.6924893878
  C        43.3085987819       18.0749368889        4.6987839874
  C        44.4940243702       18.0928745988        5.4244670533
  C        41.8534397874       17.1490075380        2.8982032367
  C        41.8747547769       17.1620288808        1.4783689529
  C        43.0926668086       17.2612723310        0.7347512526
  C        46.1530860053       26.6372264464        0.7263885710
  C        46.1627098694       26.6562706774        3.5360094382
  C        14.0452164121       17.8327869047        5.7087780437
  C        15.3658089426       17.9109348297        5.0176502300
  C        15.6344325034       18.9275670925        4.0888619344
  C        16.8623032446       18.9696598747        3.4322000768
  C        17.8495826808       17.9944804204        3.6787468988
  C        17.5877970965       17.0068000469        4.6458367961
  C        16.3617414622       16.9640329149        5.3058022922
  C        19.1164523799       17.9740397496        2.9087642046
  C        19.0921411491       17.9469808995        1.4870900744
  C        17.8728468622       17.8355590700        0.7457149452
  C        28.8050508528       14.0935185317       10.3967171384
  C        28.1810629974       12.9299600556       11.0892267598
  C        28.8747997198       12.2258818925       12.0844793592
  C        28.2644422649       11.1568410374       12.7355687341
  C        26.9461154211       10.7698833438       12.4180719230
  C        26.2753781761       11.4569309842       11.3902515419
  C        26.8830582977       12.5255696519       10.7368651566
  C        26.2652509460        9.6959726740       13.1763055174
  C        26.2303578574        9.7348919015       14.5968816960
  C        26.7020884968       10.8628898373       15.3406672873
  C        32.1843899749       21.2462881308       10.1337419385
  C        32.7827305094       22.4100956346       10.8568899488
  C        32.0266693995       23.0933162953       11.8221208451
  C        32.5924652518       24.1339498433       12.5527321794
  C        33.9310026511       24.5181546094       12.3417740771
  C        34.6708622899       23.8514981826       11.3468920651
  C        34.1065309776       22.8063986339       10.6166152035
  C        34.5534875594       25.5945936002       13.1469958292
  C        34.5256366103       25.5710771684       14.5686820535
  C        33.9999947420       24.4610220246       15.3027048359
  C        25.6323958816        8.6513686132       15.3164083778
  C        25.6447955672        8.6347054736       12.5032091492
  C        32.0781292220       21.1978639575        5.8726849421
  C        32.6414710162       22.3614637679        5.1243181856
  C        31.8927296705       23.0357987360        4.1456932215
  C        32.4639302686       24.0754985400        3.4120632145
  C        33.7958316697       24.4760907548        3.6431974398
  C        34.5241217040       23.8172288710        4.6519317017
  C        33.9599951369       22.7712425247        5.3767011738
  C        34.4346416050       25.5655422860        2.8673795879
  C        34.4609468277       25.5581068812        1.4459108665
  C        33.9671044456       24.4562995166        0.6789964258
  C        40.6353637781       17.1631614500        0.7595620192
  C        40.6266795118       17.1835948528        3.5685160672
  C        28.7138710422       14.1032992788        5.8172800933
  C        28.0886552159       12.9649607407        5.0819369579
  C        28.8012904835       12.3048468007        4.0689446436
  C        28.2165742398       11.2489503032        3.3742782784
  C        26.9026803076       10.8274343273        3.6643911192
  C        26.2079626609       11.4780008366        4.7018987387
  C        26.7909229795       12.5344743395        5.3996760909
  C        26.2582650342        9.7355358566        2.8950475021
  C        26.2295214133        9.7543598324        1.4729178831
  C        26.6993348115       10.8737155059        0.7166046881
  C        18.1355676095        3.1812144843       10.3172654886
  C        17.4064969991        4.2784033286       11.0159652212
  C        16.3902511079        4.0001932820       11.9429608570
  C        15.7426309382        5.0402626270       12.6063817977
  C        16.0952252590        6.3838964601       12.3671798699
  C        17.0852873568        6.6532914197       11.4040979177
  C        17.7343111473        5.6158634063       10.7391216596
  C        15.4707365660        7.4915576537       13.1301419385
  C        15.4858445555        7.4907451794       14.5518435646
  C        16.1876395166        6.4972656579       15.3049603905
  C        42.9458250360       31.8597729572       10.0729151199
  C        43.6462271310       30.7720463093       10.8168674907
  C        44.5913903287       31.0934412236       11.8032716272
  C        45.1971040654       30.0879559384       12.5510397486
  C        44.8712760567       28.7348131319       12.3357663923
  C        43.9459986330       28.4203731882       11.3220601399
  C        43.3372337743       29.4254680673       10.5739197117
  C        45.4887206291       27.6554607116       13.1389865620
  C        45.4927682865       27.6810324304       14.5606873862
  C        44.8057963842       28.6891278215       15.3073503504
  C        14.8566979876        8.5631191640       15.2642030956
  C        14.8754485073        8.5632901135       12.4515312943
  C        42.9465579769       31.9618331063        5.8090296140
  C        43.6920307230       30.8856703253        5.0957787769
  C        44.6560847093       31.1916538824        4.1229672756
  C        45.2776598147       30.1720764301        3.4052614736
  C        44.9544485882       28.8216984105        3.6433290770
  C        44.0217320942       28.5240209360        4.6548351864
  C        43.3934255847       29.5407354343        5.3670407696
  C        45.5633177888       27.7242663859        2.8580210081
  C        45.5333463499       27.7174956172        1.4367205424
  C        44.8271027492       28.7077715640        0.6837454179
  C        35.0826793494       26.6459041316        0.7476652781
  C        35.0480141776       26.6185779610        3.5584160319
  C        18.1488033014        3.2472078589        5.7064715737
  C        17.4305160749        4.3439686784        4.9969965145
  C        16.4148552815        4.0527971950        4.0738821824
  C        15.7666821826        5.0834856680        3.3984907875
  C        16.1218017870        6.4286535098        3.6209176244
  C        17.1138287372        6.7119286454        4.5775194907
  C        17.7614002773        5.6829671051        5.2573005989
  C        15.4912047259        7.5243647381        2.8485812804
  C        15.4969050217        7.5076288596        1.4274625818
  C        16.1938159456        6.5060307740        0.6807701890
  H        10.6724494835       12.4654615857        3.9048820371
  H        11.6946840794       10.5506757390        2.6630291946
  H        15.3919720353       11.1687780036        4.7720238319
  H        14.3515269276       13.0714871181        6.0172752233
  H        13.3756700002       11.6308679856        1.2013476927
  H        50.3227548896       22.7483303276        3.9866805173
  H        49.3195694261       24.6228451359        2.6806481111
  H        45.6423594724       24.1614249396        4.8639914681
  H        46.6634166375       22.2904222614        6.1722493600
  H        47.6293258790       23.5757372135        1.2463026160
  H        14.8729286527        8.5885163829        4.6085599816
  H        50.2872279015       22.7028568377       12.0605547850
  H        49.2691598004       24.5757596497       13.3606146082
  H        45.6105940459       24.1092684759       11.1462486547
  H        46.6528368580       22.2538144360        9.8320847377
  H        47.6073078373       23.5517456961       14.7969109951
  H        40.6535671826       17.1360516907       11.4201777788
  H        48.6871545051       14.0947253786        7.8001266591
  H        10.6813006409       12.4663928764       12.0930738274
  H        11.6896321334       10.5244913464       13.2967225105
  H        15.3938425298       11.1593443347       11.2059445575
  H        14.3653118080       13.0876493602        9.9906130024
  H        13.3753317440       11.6218761072       14.7531705963
  H        47.9302832302       14.2179499303        9.7109456920
  H        47.7800444462       14.3727897005        6.4953182384
  H        49.0840485192       18.5523444239       10.8677031239
  H        10.4164904174       14.1341226044        7.9987666118
  H        24.4891278092        3.0475538643        3.9149194925
  H        25.6163104722        4.9189987374        2.6955423820
  H        23.2265442646        7.7619692528        4.8639337330
  H        22.1171845518        5.8817363618        6.0847841863
  H        23.7878383808        5.8107747505        1.2795852360
  H        36.3555325332       32.1913528612        3.9876047900
  H        35.2066477721       30.3745493595        2.7211286510
  H        37.4714704029       27.4371944561        4.8997040361
  H        38.5997408902       29.2675907419        6.1760588704
  H        36.9820419564       29.4569580897        1.3020230281
  H        25.7156871703        8.6374786714        4.6602599875
  H        36.4516505295       32.2444118289       12.1091256054
  H        35.3390835257       30.4310811527       13.4094177732
  H        37.5507643173       27.4891127499       11.1812787264
  H        38.6370186448       29.3145234042        9.8677330234
  H        37.0237382760       29.4758041539       14.8544886218
  H        46.1098358331       26.5879291762       11.3857028249
  H        44.6686982838       35.1164992615        7.8138448515
  H        24.4207413422        3.0526096575       12.1106761236
  H        25.5362106240        4.8985504550       13.3642099466
  H        23.1514586952        7.7743824671       11.2341574410
  H        22.0464633374        5.9168045349        9.9813356184
  H        23.7619012049        5.8099877957       14.8312937398
  H        44.9551909573       34.3917475956        9.6961230651
  H        44.9029228294       34.2073401586        6.4905064175
  H        40.6675408601       33.2101559980       10.8535813839
  H        23.1501287832        1.9590493341        8.0059505982
  H        25.8098345115       19.6830317484        3.8858599251
  H        23.6297497364       19.7340014162        2.6782438397
  H        22.3687475238       16.2196222984        4.8125177496
  H        24.5562069418       16.1805021540        6.0190350842
  H        23.7187251815       17.6716618690        1.2430232723
  H        35.2368242455       15.4404295797        4.0866391386
  H        37.3332122109       15.4263491654        2.7348220137
  H        38.7067063745       18.9120258265        4.8478047418
  H        36.5943560355       18.9202854882        6.1921885700
  H        37.2419329379       17.4179195121        1.2542125996
  H        20.3567024335       18.0027199269        4.6633920006
  H        35.2058617004       15.4695807070       12.0797697832
  H        37.3393291972       15.4244070349       13.3813056919
  H        38.7401071968       18.8460817656       11.1823789047
  H        36.6032475595       18.8697634666        9.8764919191
  H        37.2512358553       17.4121833209       14.8008407165
  H        35.1673445109       26.6850371332       11.4055462993
  H        28.5038412250       21.0950962813        7.9828208749
  H        25.7815855033       19.5981677709       12.1984960913
  H        23.5902763395       19.6662178397       13.4021914518
  H        22.2845258289       16.2060864598       11.2058768063
  H        24.4699252448       16.1686914721        9.9885601992
  H        23.6987319080       17.6448792840       14.7942370137
  H        28.9878141643       21.7277046035        9.7724130190
  H        29.1369105847       21.7489690055        6.6083241080
  H        32.1089840955       18.5599863130       10.9217235314
  H        27.3921720318       19.0761552426        8.0634043555
  H        14.8492028875       19.6532983041       12.1333143345
  H        17.0131456152       19.7027464382       13.3747947818
  H        18.3041165835       16.1925554673       11.2511025345
  H        16.1361877401       16.1587897654       10.0092132791
  H        16.9195184554       17.7070408671       14.8418281979
  H        46.0910224642       15.4548616345       12.0767942604
  H        43.9658000566       15.4169714909       13.3877911171
  H        42.5631358079       18.8395968765       11.1917447778
  H        44.6887392594       18.8529226550        9.8717983916
  H        44.0376886379       17.3801015542       14.8249738375
  H        20.2915827857       17.9316646977       11.4164266123
  H        46.0447166133       15.4049546330        4.0229624099
  H        43.9155269034       15.3708431797        2.7181844399
  H        42.5467969740       18.8314664145        4.8746925506
  H        44.6820564944       18.8520171959        6.1795171201
  H        44.0284378689       17.3663827991        1.2760499611
  H        46.1999214565       26.6829519652        4.6234396847
  H        52.7410919807       21.0625219022        8.1946708139
  H        14.8708874288       19.6785074113        3.8982624684
  H        17.0693460473       19.7610440691        2.7150032104
  H        18.3414236175       16.2473514148        4.8438307388
  H        16.1445718595       16.1884273277        6.0362348343
  H        16.9389167774       17.7283651625        1.2892074960
  H        52.3220317354       21.6732141369        6.2945505352
  H        52.0129426053       21.7017969258        9.4955472437
  H        49.0687038316       18.6084511312        5.2041313851
  H        13.2476865807       19.0163560555        7.9771666044
  H        29.8865862166       12.5348693984       12.3375155544
  H        28.8043454097       10.6095157185       13.5051253867
  H        25.2567464356       11.1695878045       11.1378419769
  H        26.3619015798       13.0772588262        9.9584405335
  H        27.0435802342       11.7398445988       14.7991861112
  H        30.9992752737       22.7813018771       11.9945648437
  H        31.9997282267       24.6640721164       13.2950695837
  H        35.7073207853       24.1371562302       11.1789598586
  H        34.6835322839       22.2666694396        9.8690531649
  H        33.6472114268       23.5932252319       14.7528289490
  H        25.6901970243        8.6062637626       11.4159128662
  H        30.8586707093       22.7389041020        3.9790893759
  H        31.8761257902       24.6006629634        2.6619640446
  H        35.5541155232       24.1148675335        4.8375931519
  H        34.5297237672       22.2419257479        6.1368320222
  H        33.5908107917       23.5832908759        1.2042737745
  H        40.6231802495       17.1496998919        4.6562287462
  H        32.5286473116       14.1306982187        8.2524288766
  H        29.8122829623       12.6374835197        3.8433692672
  H        28.7785095910       10.7331266503        2.5987265881
  H        25.1913647276       11.1668850550        4.9336126957
  H        26.2497309605       13.0508087218        6.1890163581
  H        27.0365073351       11.7593516045        1.2472636457
  H        33.2941619868       14.1668406159        6.4283771763
  H        33.4111995472       14.3854975779        9.6173307757
  H        32.1896429793       18.5417360578        5.2119200412
  H        30.1908138010       14.1466627552        8.0796096726
  H        16.1177039915        2.9637535701       12.1289597567
  H        14.9528046624        4.8210974243       13.3216869889
  H        17.3684851044        7.6860720334       11.2116047918
  H        18.5170258313        5.8184749950       10.0119912420
  H        16.7545131019        5.7401788432       14.7714335507
  H        44.8273101104       32.1405612517       11.9777772564
  H        45.9367059262       30.3418469289       13.3071996712
  H        43.6839886104       27.3782147961       11.1514431449
  H        42.6012369617       29.1900957726        9.8086683703
  H        44.2306945339       29.4370976196       14.7690653478
  H        14.8519757352        8.5466647734       11.3633017324
  H        44.8992580278       32.2343614105        3.9311472026
  H        46.0242070284       30.4134343154        2.6517107381
  H        43.7655267924       27.4842202600        4.8470108357
  H        42.6476220187       29.3179238324        6.1261681018
  H        44.2688771636       29.4708796449        1.2183054057
  H        35.0019888559       26.6272685411        4.6458566500
  H        36.6055825269       35.1342097184        8.1806146909
  H        16.1434296995        3.0132720065        3.9044329082
  H        14.9740595609        4.8568325213        2.6886826323
  H        17.3979946645        7.7473031959        4.7538870094
  H        18.5448957579        5.8933815705        5.9814024210
  H        16.7656301525        5.7560830049        1.2192075051
  H        36.2793605338       34.4821753912        6.2729713446
  H        36.3820570178       34.2086448445        9.4990055092
  H        40.5804467004       33.2028769859        5.1534330938
  H        17.4713555257        1.9479074867        7.9741474436
  H        29.0064235343       19.4053793517       12.3989476233
  H        30.1752743357       19.4303084167        3.3218253707
  H        32.4613414374       16.2550954494        3.9126303372
  H        31.1816405308       15.5745181496       12.4040542588
  H        27.5462453833       17.9579052835       14.1371775465
  H        29.0706213255       15.2238754633       14.1878257079
  H        31.2821772249       20.9382797192        2.1013168303
  H        32.1067112093       18.2704592135        1.6450379969
  H        28.9237912872       16.3650125966        1.4829243342
  H        31.7436566019       18.5459607791       14.2929216389
  H        18.8543387699        0.8692327696       12.3352993370
  H        40.5282029314       35.2285831378        3.9518224205
  H        42.3262058174       34.4210231507        3.5891063873
  H        22.0875858965        0.6923552877       12.3514887242
  H        11.5967486678       18.7128800443       12.3828411735
  H        52.2645816494       18.4309987847        3.6769133992
  H        49.2553542351       16.4763863303        3.5844633239
  H        10.1495699293       15.7981534585       12.2932070645
  H        50.8497502152       17.6922239657        3.9542301730
  H        10.0458349993       17.3943718745       12.0520507651
  H        20.2160086738        0.0025151733       12.0417424087
  H        39.1841435965       36.1245646255        3.6866992551
 Ni        30.3541481176       16.6422667273        2.8311517470
 Ni        30.9867304123       16.2292030127       -0.5820925952
 Ni        29.4203373685       19.2378094467       -0.6676354965
 Ni        29.8883034991       17.3948284767       12.8323528222
  O        10.6500902012       14.3650436462        5.4858286323
  O        12.6132820539       14.6575108650        6.5838913773
  O        49.1485418368       16.8457286970        7.9899002722
  O        50.3502998970       20.9359082120        5.6480482435
  O        48.3486232518       20.5934647096        6.6659559723
  O        11.0519330926       17.0536983528        6.5007525846
  O        50.3211121112       20.8817699451       10.4069134442
  O        48.3467921693       20.5869780419        9.3273180444
  O        49.5439016898       18.2484355135       10.0684799619
  O        12.3592503151       18.6245715964        7.9996806723
  O        48.6933673212       14.1484012145        6.7513961657
  O         8.2099364821       14.2103044372        9.3225074457
  O        10.7354150253       14.5067280273       10.6643349371
  O        12.5718503638       14.5828051874        9.3285202845
  O        22.8448015597        2.0446270251        5.4870048017
  O        21.6048578835        3.5917848013        6.5906172229
  O        42.0583404070       34.1377029282        7.9789119697
  O        37.9810663738       33.1359691340        5.5722081112
  O        39.2170808874       31.5745652633        6.6656914972
  O        20.3086177579        1.0397456886        6.5022261735
  O        38.0246948157       33.1856163127       10.4156542016
  O        39.2186279442       31.5831417690        9.3272186681
  O        40.6523343281       33.7694261129       10.0600221994
  O        18.2556971350        1.3762529283        7.9967686429
  O        44.6222079343       35.1006490179        6.7587534935
  O        24.2054192047        0.0000903611        9.3207087768
  O        22.7530205296        2.0591525143       10.5846386956
  O        21.6244232858        3.5960261234        9.3428291326
  O        27.5521681015       18.6948971883        5.4079106387
  O        26.7316792610       16.9941479819        6.6656484740
  O        30.6711110223       19.4111368453        8.0498940814
  O        33.6683270466       16.2840952001        5.7478151330
  O        34.3112595572       18.2362918201        6.7375250782
  O        29.5782944826       17.0614974997        6.5802605959
  O        33.6247254097       16.3273357067       10.4058458611
  O        34.3077617227       18.2471041339        9.4054555853
  O        31.6602717423       18.3158714383       10.0955486245
  O        30.2960713713       15.1116511605        8.0844371329
  O        28.5507687639       21.0303785814        6.9040446397
  O        28.5100549488       20.9652095087        9.4037838388
  O        27.4580353111       18.6773116731       10.6570190840
  O        26.6932743253       16.9283179955        9.4122248383
  O        13.1484229849       18.6930921387       10.5872012420
  O        13.9192999599       16.9162380051        9.4049000700
  O        50.5968364586       19.3505120893        8.0208099499
  O        47.6839156656       16.3267531231       10.4170704970
  O        46.9529919708       18.1761547127        9.3237567555
  O        11.0699285726       17.0154007514        9.4896807976
  O        47.6773844284       16.3345594710        5.6531820627
  O        46.9337655826       18.2352186841        6.6673639350
  O        49.5693198799       18.3176754949        5.9823839305
  O        10.3189067363       15.0999658025        7.9970304472
  O        52.6707979235       21.0278830382        9.2418495383
  O        12.1468243991       20.8912359584        6.6732531827
  O        13.1072799057       18.6140309668        5.3256654269
  O        13.9572011310       16.9873993624        6.6647590079
  O        29.9898827411       14.4406414984       10.7290584019
  O        28.0867419304       14.6549943699        9.4947136232
  O        32.1434780649       16.8533845990        8.0711527131
  O        30.9717324777       20.9643502875       10.3933631644
  O        32.9526790146       20.5996042648        9.3325556383
  O        29.5653364110       17.0739524512        9.5733459801
  O        30.8494228073       20.8785017305        5.6456241801
  O        32.8678647123       20.5893055741        6.6613903985
  O        31.6819389978       18.2456691850        5.9832897278
  O        28.2784825596       18.6792195698        8.0681713229
  O        32.4967391520       14.2081332991        9.3288584327
  O        32.4116975252       14.2011048222        6.8336873418
  O        29.8987443298       14.4380420120        5.5001756001
  O        28.0027753221       14.6517417616        6.7413346379
  O        17.8892920399        1.9666271804       10.6627636956
  O        18.9561939492        3.5271848888        9.4079721733
  O        39.1685835119       34.1387053724        7.9971211082
  O        43.2802096716       33.0590237297       10.3317460441
  O        42.0343815089       31.5065236714        9.2415754512
  O        20.3179588845        1.0369978157        9.4800386027
  O        43.2760111994       33.1826320901        5.5748803659
  O        42.0051780732       31.5841314510        6.5829644345
  O        40.5789204113       33.7750314851        5.9359158861
  O        22.3676408538        1.3848767138        7.9980011877
  O        36.6728361839       35.0997574550        9.2332844818
  O        16.4458027804        0.0642166957        6.6681916774
  O        17.9366190910        2.0433787413        5.3263926071
  O        18.9189671733        3.5931587862        6.6659586744
  O        29.7303541495       18.8218251320        3.9971162780
  O        29.8181776415       19.1331589589       11.9129160259
  O        31.5688108211       15.9712847000        4.1814061097
  O        31.3881331361       16.4057862073       11.9221733121
  O        32.2709024515       17.3710113176        1.9991121780
  O        29.3886772567       16.7714934797        0.6675069387
  O        29.9147082158       15.6110806914       13.9057027352
  O        30.9239034454       18.0991386657       14.5642163640
  O        31.0074951377       20.0036379967        2.0716438164
  O        28.3824689583       18.3936673347       13.9100230110
  O        39.4567846854       35.2436449664        4.0019836138
  O        19.1421436568        0.0047624915       11.9904366875
  O        41.9693731623       35.1727700286        4.0871634675
  O        21.6912287798       -0.0692167454       11.8959160230
  O        51.3649025342       18.6142237984        4.0053264824
  O        10.7511217898       18.7472094752       11.9050026655
  O        50.0798069876       16.4128084464        4.0917467645
  O         9.5240201067       16.4831051580       11.9912468066
 Zr         9.2973863837       16.0522511333        6.1826633726
 Zr        49.8365917112       16.0063877767        9.7463570485
 Zr        22.0741033576        0.0315527936        6.1885086129
 Zr        42.4617696175       35.1549470593        9.8011732698
 Zr        29.6191657405       19.0849523091        6.3467618972
 Zr        29.5773259047       19.1879562806        9.8433852964
 Zr        11.0384308422       19.0516820369        9.8278662933
 Zr        11.0442217562       19.1545285310        6.2509944991
 Zr        31.3607247165       16.0823816682        9.8455180619
 Zr        31.3954957489       15.9653825868        6.2978885290
 Zr        18.6020562152        0.0000671604        9.7633102785
 Zr        18.5074549065       -0.0065259862        6.2138882303
 Zr        12.3022487422       16.3233602782        7.9902464606
 Zr        48.6180661730       18.8331656926        8.0110741223
 Zr        20.3163539476        2.4753146571        7.9906454185
 Zr        40.6446187648       32.6884918554        7.9779637497
 Zr        28.3349705683       16.3340340561        8.0903437679
 Zr        32.6528908073       18.8239462684        8.0641438023
  H        28.9258076980       16.0953601719        3.0298323019
  H        28.7831262086       18.7214825656        3.7643012553
  H        29.0877482229       17.7424935943        0.5398037576
  H        32.3228108654       16.7436648341        1.2285086076
  H        30.3832525075       19.9100175714        1.2538447599
  H        31.6905021859       15.2043284678        0.3018617688
