     570
 i =      170, E =     -4745.5341171533
  C        11.8587766205       14.0536394505        5.7415681927
  C        12.4563032084       12.8905569908        5.0234056358
  C        11.7047273048       12.1719165600        4.0814312940
  C        12.2810977273       11.1097491863        3.3889966979
  C        13.6215412324       10.7396594886        3.6170321555
  C        14.3545340633       11.4428760071        4.5908950833
  C        13.7816677862       12.5078464190        5.2824554410
  C        14.2611445551        9.6490528521        2.8435829416
  C        14.2567139245        9.6570963001        1.4218693106
  C        13.7437088817       10.7592889960        0.6679496338
  C        49.1268410154       21.2330877731        5.8796098734
  C        48.5501688994       22.4010166981        5.1524898064
  C        49.3002809655       23.0685366554        4.1716828111
  C        48.7333624326       24.1077255880        3.4385374224
  C        47.4027435026       24.5092229727        3.6670023307
  C        46.6716685480       23.8601012437        4.6802677906
  C        47.2341211645       22.8151741861        5.4095856908
  C        46.7725049805       25.5869691337        2.8697658701
  C        46.7615775332       25.5574549546        1.4479978640
  C        47.2615745148       24.4424041641        0.7044876791
  C        14.8606600420        8.5707576528        0.7085933063
  C        14.8917472878        8.5969724380        3.5202037063
  C        49.1131156325       21.2034821418       10.1454132810
  C        48.5277100441       22.3647725481       10.8725697626
  C        49.2670755676       23.0259299304       11.8650977274
  C        48.6906676869       24.0604487342       12.5965412839
  C        47.3600510351       24.4567674355       12.3586513322
  C        46.6394267709       23.8113535290       11.3356037335
  C        47.2130709393       22.7754833774       10.6038381139
  C        46.7215899161       25.5317416443       13.1496748376
  C        46.7335816314       25.5282284050       14.5713733093
  C        47.2492140588       24.4290929966       15.3277294899
  C        40.6245504348       17.1389282536       15.3090218903
  C        40.6314345458       17.1390764161       12.4990926993
  C        11.8829924926       14.0867159680       10.2853347598
  C        12.4723778746       12.9107946523       10.9895245084
  C        11.7150797460       12.1779594381       11.9160867952
  C        12.2816792678       11.0955305706       12.5845613870
  C        13.6203108449       10.7214056271       12.3523073402
  C        14.3579931138       11.4364934114       11.3909133124
  C        13.7925382928       12.5176261983       10.7181672282
  C        14.2539852366        9.6246939455       13.1227392898
  C        14.2529344554        9.6447763740       14.5445939961
  C        13.7432130267       10.7537858575       15.2916888214
  C        22.5117654578        3.2451247088        5.7543713593
  C        23.2255174686        4.3535986799        5.0577952266
  C        24.2292329974        4.0792618522        4.1172150849
  C        24.8537806242        5.1225542432        3.4383327166
  C        24.4899464736        6.4624665442        3.6793375629
  C        23.5147432510        6.7285503953        4.6575987367
  C        22.8860635042        5.6870849138        5.3351837688
  C        25.0914152668        7.5712668275        2.9033899856
  C        25.0707554039        7.5577094373        1.4817700487
  C        24.3729809462        6.5537563540        0.7376605801
  C        38.2940282809       31.9239702146        5.8526522849
  C        37.5446150319       30.8335101863        5.1574324035
  C        36.5722699285       31.1386974550        4.1916396353
  C        35.9343630444       30.1206844700        3.4864016195
  C        36.2510442899       28.7674580502        3.7206235629
  C        37.1914275908       28.4697463911        4.7257751308
  C        37.8333131067       29.4869040231        5.4308450249
  C        35.6385346494       27.6796439643        2.9177632907
  C        35.6856317483       27.6976204101        1.4949092428
  C        36.3996508561       28.7010025898        0.7661452655
  C        25.6946639865        8.6254414819        0.7594788499
  C        25.6770817130        8.6540756377        3.5721312293
  C        38.3306247030       31.9597629168       10.1625236272
  C        37.6151943256       30.8879403825       10.9157823207
  C        36.6826209874       31.1996735288       11.9176653635
  C        36.0710952527       30.1849225864       12.6525252877
  C        36.3761624820       28.8300445212       12.4109675074
  C        37.2912765026       28.5283254278       11.3830681115
  C        37.9045087257       29.5395600052       10.6491082198
  C        35.7562882009       27.7318142094       13.1909551690
  C        35.7457161518       27.7241583113       14.6141036687
  C        36.4266885923       28.7146278676       15.3892942599
  C        46.1355691693       26.6208474017       15.2815244036
  C        46.0873257152       26.5799196734       12.4736321287
  C        22.4602470461        3.2555435619       10.2590750250
  C        23.1533767635        4.3634348765       10.9852833130
  C        24.1528712931        4.0753676303       11.9283052851
  C        24.7806079802        5.1038448151       12.6271939514
  C        24.4294201070        6.4504978385       12.4052992301
  C        23.4524266765        6.7318316018       11.4313916097
  C        22.8198787990        5.7035272054       10.7333210151
  C        25.0619134577        7.5481724105       13.1792251654
  C        25.0563650996        7.5448334874       14.6022168674
  C        24.3634854869        6.5492260878       15.3608958300
  C        26.6719062336       17.8759854906        5.7367537128
  C        25.3723332045       17.9631580570        5.0045250999
  C        25.1406180230       18.9353197076        4.0183013855
  C        23.9149214095       18.9843787347        3.3530035102
  C        22.8867429592       18.0631697368        3.6457334851
  C        23.1194977285       17.1147651882        4.6602530580
  C        24.3414546025       17.0628025477        5.3260339511
  C        21.6048920203       18.0535678960        2.8947727944
  C        21.5948067028       18.0062706920        1.4725846572
  C        22.7940357414       17.8604278561        0.7059175258
  C        34.4784830835       17.2546383036        5.9610945147
  C        35.7629435332       17.2021355866        5.2061006486
  C        35.9487222401       16.2392646362        4.2020860164
  C        37.1201558377       16.2245552174        3.4504304575
  C        38.1378094782       17.1695818955        3.6845809611
  C        37.9545534604       18.1126561837        4.7141004645
  C        36.7794159322       18.1348949048        5.4612792087
  C        39.3861458405       17.1714215494        2.8889463312
  C        39.3756588091       17.1805700310        1.4670193301
  C        38.1668951942       17.3108629005        0.7134947423
  C        20.3432004179       18.0124232045        0.7725073910
  C        20.3825365161       18.0583827786        3.5852454090
  C        34.4250034188       17.2105758057       10.2288719261
  C        35.7336222786       17.1305936008       10.9341225683
  C        35.9489824763       16.1697268323       11.9334293196
  C        37.1440107951       16.1565194690       12.6466378034
  C        38.1516271207       17.1044976332       12.3815091247
  C        37.9434060742       18.0364487960       11.3474647809
  C        36.7474826464       18.0542853371       10.6358809129
  C        39.4029564109       17.1348904314       13.1694693511
  C        39.3845891372       17.1637606875       14.5908167980
  C        38.1710839859       17.3010726905       15.3364438738
  C        35.1063929526       26.6437733164       15.3093610755
  C        35.1711865228       26.6626304522       12.4995993355
  C        26.5647055528       17.8294810354       10.3258270415
  C        25.2493728753       17.8822318948       11.0269499748
  C        24.9877046144       18.8906661408       11.9670600697
  C        23.7686573221       18.9223237679       12.6380396149
  C        22.7824103135       17.9449388444       12.3956658648
  C        23.0384717330       16.9619836192       11.4221742513
  C        24.2576013891       16.9287967656       10.7476745450
  C        21.5212015451       17.9314715974       13.1732801646
  C        21.5518507971       17.9415274220       14.5947910794
  C        22.7738301890       17.8296507221       15.3304693390
  C        14.0446598201       17.8275988393       10.2915780718
  C        15.3452136090       17.8838403762       11.0241932665
  C        15.6010990952       18.8967189913       11.9617470531
  C        16.8079873146       18.9231147830       12.6579340296
  C        17.7930952467       17.9390489076       12.4391644592
  C        17.5401772979       16.9469404265       11.4729204461
  C        16.3330096807       16.9167230723       10.7774182784
  C        19.0649730883       17.9348832996       13.2038555643
  C        19.0712018816       17.9557609432       14.6264225048
  C        17.8688501562       17.8690557060       15.3962983544
  C        46.8025936085       17.2170903692       10.1564713781
  C        45.5088706657       17.1515799286       10.8955536777
  C        45.2998353409       16.1729325647       11.8796421057
  C        44.1154989940       16.1537885561       12.6116248479
  C        43.1100044764       17.1133008756       12.3820734367
  C        43.3150492425       18.0694140980       11.3689874826
  C        44.5001187280       18.0925892347       10.6379312117
  C        41.8580641089       17.1292936384       13.1731906870
  C        41.8687008636       17.1399663634       14.5951923172
  C        43.0808165259       17.2341807011       15.3488336272
  C        20.3217687115       17.9795764626       15.3273568701
  C        20.2851861915       17.9079945017       12.5144465577
  C        46.7872031619       17.2336748384        5.8861024512
  C        45.4875227185       17.1360354648        5.1645014696
  C        45.2679391375       16.1423305849        4.1985486426
  C        44.0820900788       16.1237830475        3.4685532577
  C        43.0870383148       17.0962464586        3.6873718801
  C        43.2978318984       18.0607151734        4.6904540524
  C        44.4843221203       18.0854930140        5.4157475618
  C        41.8400874289       17.1251536608        2.8927847590
  C        41.8596133358       17.1359796293        1.4719410794
  C        43.0765017821       17.2291124001        0.7257931888
  C        46.1534540741       26.6372994071        0.7262809511
  C        46.1624014492       26.6559787089        3.5359377787
  C        14.0524083981       17.8401213145        5.7123002321
  C        15.3809096018       17.9377956786        5.0319972916
  C        15.6476890330       18.9674080735        4.1161852496
  C        16.8792783107       19.0294317249        3.4662878232
  C        17.8763744632       18.0614547416        3.7036679776
  C        17.6169825725       17.0616406083        4.6596038436
  C        16.3871367098       16.9994334574        5.3139461361
  C        19.1439327668       18.0548114275        2.9280206516
  C        19.1121697993       18.0170382953        1.5056366384
  C        17.8887338047       17.8967602265        0.7724265729
  C        28.8057134026       14.0869780490       10.3944807302
  C        28.1938049545       12.9113727856       11.0773314096
  C        28.9218569582       12.1628375373       12.0143328471
  C        28.3233029204       11.0889051532       12.6680415102
  C        26.9829327676       10.7388315909       12.4078540927
  C        26.2769298337       11.4662862045       11.4329728630
  C        26.8729061623       12.5411700510       10.7781824677
  C        26.3153961921        9.6601098230       13.1720042569
  C        26.3057687732        9.6890630137       14.5930904761
  C        26.8135536346       10.8019117441       15.3361037919
  C        32.1800638171       21.2354795035       10.1517722843
  C        32.7717860488       22.4006285738       10.8703378522
  C        32.0323433909       23.0555151115       11.8678188991
  C        32.5984966352       24.1010195763       12.5902672595
  C        33.9214022812       24.5169987812       12.3437163183
  C        34.6433677556       23.8780456156       11.3170566927
  C        34.0790652222       22.8297588502       10.5925802833
  C        34.5478112589       25.5907854495       13.1494736587
  C        34.5274048369       25.5587250429       14.5719180309
  C        34.0199775282       24.4378185220       15.3020060102
  C        25.6936916502        8.6142282781       15.3144435750
  C        25.6765610031        8.6094944933       12.5008885755
  C        32.0343036140       21.1316261564        5.7944525946
  C        32.5950068564       22.3042972033        5.0616797124
  C        31.8766849869       22.9556467301        4.0459450855
  C        32.4509952669       24.0160288072        3.3451287370
  C        33.7596508273       24.4556787005        3.6351940960
  C        34.4556111253       23.8185095501        4.6810020853
  C        33.8862856276       22.7584326166        5.3802845963
  C        34.4101214718       25.5486352136        2.8716193299
  C        34.4550342155       25.5392835784        1.4491865137
  C        33.9842489164       24.4304246112        0.6781013395
  C        40.6193652407       17.1419760790        0.7536141288
  C        40.6124396704       17.1598717444        3.5628882042
  C        28.7235841721       14.0979760912        5.8205028148
  C        28.1017207791       12.9572607370        5.0822012364
  C        28.8448100232       12.2385919600        4.1324237938
  C        28.2642964680       11.1827407392        3.4343804852
  C        26.9235650560       10.8133637163        3.6629422714
  C        26.1956767915       11.5188924019        4.6396727946
  C        26.7743967021       12.5783780278        5.3375464337
  C        26.2892683563        9.7152897468        2.8926699888
  C        26.2935662670        9.7173100083        1.4704609611
  C        26.8049117484       10.8170795679        0.7122210321
  C        18.1352693020        3.1806967641       10.3171081098
  C        17.4059446717        4.2779944509       11.0156967078
  C        16.3904791184        3.9996785715       11.9435042210
  C        15.7427808035        5.0397044670       12.6069805917
  C        16.0944740168        6.3834388414       12.3670271968
  C        17.0835108169        6.6528897038       11.4028783774
  C        17.7325732998        5.6155181751       10.7378445064
  C        15.4702775127        7.4912341054       13.1300562773
  C        15.4857432057        7.4906662146       14.5517752571
  C        16.1872729712        6.4970384412       15.3049546187
  C        42.9455970384       31.8593125488       10.0728043583
  C        43.6457946918       30.7716460664       10.8167820782
  C        44.5914391379       31.0929369661       11.8027777106
  C        45.1970810077       30.0873751815       12.5504475126
  C        44.8704794372       28.7343187414       12.3357406720
  C        43.9444681205       28.4200158554       11.3226784307
  C        43.3357061818       29.4251683689       10.5745992950
  C        45.4881902425       27.6550750291       13.1389280102
  C        45.4926425951       27.6808549945       14.5606227546
  C        44.8055393939       28.6888567727       15.3072875118
  C        14.8569134913        8.5632425952       15.2641465066
  C        14.8749526845        8.5629917349       12.4514682037
  C        42.9463808512       31.9613825638        5.8089777592
  C        43.6915951105       30.8853058384        5.0955933779
  C        44.6562939669       31.1912310224        4.1233736960
  C        45.2778279446       30.1716525470        3.4056752549
  C        44.9539699887       28.8213202211        3.6432011706
  C        44.0203064844       28.5236480890        4.6538153529
  C        43.3919989666       29.5403977229        5.3659812744
  C        45.5630728177       27.7239803404        2.8579114051
  C        45.5334095193       27.7173854439        1.4366078004
  C        44.8269366935       28.7075294929        0.6836814836
  C        35.0727709092       26.6326416159        0.7552796184
  C        35.0160092754       26.6053491275        3.5665653612
  C        18.1485407722        3.2468024988        5.7066875445
  C        17.4298919018        4.3436954855        4.9974269684
  C        16.4149870515        4.0524309695        4.0735257855
  C        15.7667137889        5.0830605563        3.3980750227
  C        16.1210593700        6.4283288875        3.6211061874
  C        17.1120463315        6.7117044931        4.5787830774
  C        17.7596516438        5.6827889867        5.2586117400
  C        15.4906764109        7.5240792033        2.8486273339
  C        15.4967648733        7.5075776786        1.4274842850
  C        16.1934996331        6.5058668608        0.6807700474
  H        10.6726913596       12.4662606069        3.9041962018
  H        11.6948584309       10.5514950508        2.6622393640
  H        15.3914425597       11.1680059485        4.7729115409
  H        14.3510106460       13.0708973108        6.0181208586
  H        13.3766688259       11.6313989407        1.2012694974
  H        50.3230363460       22.7486121288        3.9870165012
  H        49.3198994652       24.6231346358        2.6810981505
  H        45.6420658368       24.1606230256        4.8632362212
  H        46.6629667917       22.2897682329        6.1714572001
  H        47.6301081901       23.5760122001        1.2461506518
  H        14.8718002203        8.5880646355        4.6085045810
  H        50.2872812073       22.7034373321       12.0597468307
  H        49.2691356051       24.5762326675       13.3597647314
  H        45.6097985280       24.1080829683       11.1469488205
  H        46.6520287271       22.2529119107        9.8327138665
  H        47.6079188418       23.5519504729       14.7968210927
  H        40.6330165948       17.0946352094       11.4116405925
  H        48.6869747181       14.0949862068        7.8000267512
  H        10.6817427706       12.4673139486       12.0938291228
  H        11.6899822858       10.5254245162       13.2975689738
  H        15.3932335883       11.1582088225       11.2045098984
  H        14.3646117972       13.0865796585        9.9890962091
  H        13.3764070342       11.6224144202       14.7530583034
  H        47.9300571610       14.2189575618        9.7108013106
  H        47.7799572775       14.3733704161        6.4951060862
  H        49.0829391655       18.5519034563       10.8670670288
  H        10.4160945786       14.1343908785        7.9987074500
  H        24.4974918735        3.0422058448        3.9279866944
  H        25.6321134241        4.9093894419        2.7088111891
  H        23.2258993168        7.7597081465        4.8502380241
  H        22.1107924183        5.8830010839        6.0718512284
  H        23.8122749354        5.7977837500        1.2795953362
  H        36.3406442596       32.1826088975        3.9934397503
  H        35.1832972235       30.3665030186        2.7387650368
  H        37.4466815324       27.4297018865        4.9186479540
  H        38.5842639455       29.2588600588        6.1837943510
  H        36.9569646478       29.4513750407        1.3192060336
  H        25.7035631653        8.6439869602        4.6603003601
  H        36.4551034231       32.2444500416       12.1170527361
  H        35.3407318945       30.4355381657       13.4187326053
  H        37.5421502240       27.4875258850       11.1891181595
  H        38.6303794274       29.3080639978        9.8733056113
  H        37.0057438923       29.4751855207       14.8731792896
  H        46.1084231407       26.5871250997       11.3855896002
  H        44.6680913618       35.1160177400        7.8138878763
  H        24.4288831203        3.0365988596       12.0950195236
  H        25.5596842873        4.8727477902       13.3505330903
  H        23.1691164143        7.7668469612       11.2511208642
  H        22.0499862700        5.9183497659        9.9957791532
  H        23.7945166395        5.7906097905       14.8312272151
  H        44.9534363668       34.3900281840        9.6949042576
  H        44.9012514574       34.2066784565        6.4904572498
  H        40.6658530743       33.2084396803       10.8528064979
  H        23.1504252449        1.9573233417        8.0057678309
  H        25.9280522113       19.6504378516        3.7888651025
  H        23.7410273375       19.7478137291        2.5976478716
  H        22.3410631500       16.3922622628        4.8969510137
  H        24.5265786236       16.3175708545        6.0957145201
  H        23.7375785263       17.7394955852        1.2293605425
  H        35.1555744977       15.5187162213        4.0173498455
  H        37.2624195682       15.4722226697        2.6777891753
  H        38.7325306519       18.8505622673        4.8986370432
  H        36.6210876834       18.8789932403        6.2383816607
  H        37.2302628105       17.4503873474        1.2459957580
  H        20.3959996958       18.1109574529        4.6726166142
  H        35.1615829209       15.4519855221       12.1505264329
  H        37.3092762468       15.4099510996       13.4202179092
  H        38.7150845405       18.7740924817       11.1373408883
  H        36.5653359478       18.7933076225        9.8593422938
  H        37.2372850518       17.4331953291       14.7973772950
  H        35.1546205878       26.6919370277       11.4117407808
  H        28.5201742618       21.0864307577        7.9771077766
  H        25.7519696668       19.6407193190       12.1573000917
  H        23.5666984628       19.7085655531       13.3622102296
  H        22.2861145653       16.2001732928       11.2283338675
  H        24.4705363395       16.1572529256       10.0116065266
  H        23.7013516055       17.6872655764       14.7839477026
  H        28.9981169173       21.7189348024        9.7717473491
  H        29.0925903047       21.7727220630        6.5898337659
  H        32.0661556226       18.5569274331       11.0204164893
  H        27.3940264995       19.0643375289        8.0728951149
  H        14.8442559920       19.6600328675       12.1279943091
  H        17.0036563286       19.7166209115       13.3759908341
  H        18.2897337631       16.1781826842       11.2964689717
  H        16.1271817230       16.1392388987       10.0454796507
  H        16.9230976500       17.7467551806       14.8762643768
  H        46.0829510677       15.4415293405       12.0650873389
  H        43.9550591490       15.3882915470       13.3676571888
  H        42.5466634265       18.8178054823       11.1863880056
  H        44.6747810716       18.8461759083        9.8735812608
  H        44.0210571509       17.3413125053       14.8155948861
  H        20.2718117386       17.9226876314       11.4260731170
  H        46.0417107727       15.3986034649        4.0222312688
  H        43.9134009970       15.3519808824        2.7207407568
  H        42.5344457422       18.8160067181        4.8651018897
  H        44.6684923116       18.8485468688        6.1679322146
  H        44.0136276635       17.3312142551        1.2653925296
  H        46.1990854970       26.6823990904        4.6233915277
  H        52.7409308872       21.0626403746        8.1946516547
  H        14.8785544855       19.7133937797        3.9282624818
  H        17.0796917768       19.8309724384        2.7584047039
  H        18.3755973496       16.3061058887        4.8537757001
  H        16.1760633458       16.2128772298        6.0346285289
  H        16.9581324366       17.7956618303        1.3227249361
  H        52.3217951651       21.6729911661        6.2944969567
  H        52.0129457436       21.7017492441        9.4957744475
  H        49.0678886444       18.6078213632        5.2039159765
  H        13.2474484652       19.0171207004        7.9785862196
  H        29.9553157650       12.4366548071       12.2146806817
  H        28.8888323650       10.5078442904       13.3933435392
  H        25.2413445998       11.2052175171       11.2248288172
  H        26.3248010618       13.1249280268       10.0427199512
  H        27.1827630299       11.6666897112       14.7930471831
  H        31.0200848616       22.7201133640       12.0798512221
  H        32.0171910391       24.6040939440       13.3595860324
  H        35.6681868840       24.1863135726       11.1205119257
  H        34.6447867404       22.3131480236        9.8207200652
  H        33.6812520065       23.5620357868       14.7553117470
  H        25.7037152546        8.5894844551       11.4128288264
  H        30.8686095033       22.6188248040        3.8131038421
  H        31.8835090248       24.5195655723        2.5654478422
  H        35.4677868651       24.1418023968        4.9151891242
  H        34.4339313798       22.2499543465        6.1700639042
  H        33.6209324026       23.5479267493        1.1963147486
  H        40.6098689951       17.1234438131        4.6505678675
  H        32.5116087187       14.1450448518        8.2922011918
  H        29.8823669058       12.5160732816        3.9626183180
  H        28.8500337336       10.6233233861        2.7080991280
  H        25.1582582497       11.2471243875        4.8239019650
  H        26.2077020766       13.1363044187        6.0793593472
  H        27.1667122591       11.6935798762        1.2419636722
  H        33.3155276313       14.2185309593        6.4677589579
  H        33.4098124294       14.4082170222        9.6207340945
  H        32.1537901903       18.4653488879        5.1825531880
  H        30.2274877267       14.1854856797        8.1409198662
  H        16.1185461200        2.9631774531       12.1301356095
  H        14.9534876034        4.8203040843       13.3228101735
  H        17.3656447846        7.6857810311       11.2094210696
  H        18.5142950766        5.8181111137       10.0096438814
  H        16.7536959102        5.7395942495       14.7714606728
  H        44.8278878991       32.1399891075       11.9768758556
  H        45.9370293268       30.3410781424       13.3063243357
  H        43.6815116229       27.3779836405       11.1527355590
  H        42.5989774036       29.1897706067        9.8100594798
  H        44.2299400942       29.4364710346       14.7690325527
  H        14.8509071637        8.5460703708       11.3632549637
  H        44.8999083024       32.2339015217        3.9319831817
  H        46.0247819419       30.4128575026        2.6524823735
  H        43.7631378200       27.4839378295        4.8452109331
  H        42.6453142544       29.3175052318        6.1242185440
  H        44.2682684911       29.4702923335        1.2182750981
  H        34.9592240915       26.6160165651        4.6535795562
  H        36.6050785965       35.1336882254        8.1808707248
  H        16.1441129684        3.0128384164        3.9035451429
  H        14.9745941759        4.8561586289        2.6877762076
  H        17.3951859683        7.7472096622        4.7560326073
  H        18.5421432739        5.8932310466        5.9837905200
  H        16.7648057676        5.7555238029        1.2192001015
  H        36.2785037285       34.4820842001        6.2730029590
  H        36.3801946171       34.2092392412        9.4999816403
  H        40.5775374790       33.2004087355        5.1544423456
  H        17.4711525769        1.9461882880        7.9739558177
  H        28.9265046520       19.1619001678       12.4729719711
  H        31.3313554360       15.2936642987        3.8112121036
  H        31.4870630410       15.6547632321       12.6861553667
  H        28.2411688374       17.8187803237       14.8687760176
  H        29.4120087159       15.2785810556       14.3928728790
  H        31.4022337799       20.2489971901        1.1270945373
  H        28.0419769225       17.3606174729        2.1149101296
  H        30.6502760042       20.2665907105       13.6993429676
  H        18.8535219243        0.8690471599       12.3351625147
  H        40.5279336513       35.2291027043        3.9522198895
  H        42.3231141512       34.4180129776        3.5913145826
  H        22.0878521637        0.6920814581       12.3511676708
  H        11.5965738354       18.7133242859       12.3824537667
  H        52.2648238470       18.4308992587        3.6768613459
  H        49.2553005356       16.4771440590        3.5847443811
  H        10.1497712316       15.7982735911       12.2931194473
  H        50.8499755679       17.6921803869        3.9543790711
  H        10.0458369042       17.3946328757       12.0520229360
  H        20.2149035775        0.0022579998       12.0419915720
  H        39.1833434566       36.1243137242        3.6866217560
 Ni        30.1400765368       17.1553955507        3.1623781254
 Ni        29.5913571467       16.6952342399        0.3378535663
 Ni        30.1812401028       18.8917550118       -0.4961223210
 Ni        29.9740152701       17.3525931836       13.3167839523
  O        10.6500450782       14.3650705144        5.4858738497
  O        12.6133213773       14.6576973634        6.5838985428
  O        49.1480872615       16.8459210446        7.9898151351
  O        50.3503179375       20.9355476229        5.6479563372
  O        48.3485903616       20.5933201315        6.6659220876
  O        11.0518510067       17.0536888665        6.5007082870
  O        50.3210155323       20.8816831959       10.4067788493
  O        48.3467807503       20.5867840413        9.3271234690
  O        49.5437762940       18.2483685309       10.0682463754
  O        12.3593761658       18.6243989485        7.9994056603
  O        48.6932248351       14.1486077222        6.7513078459
  O         8.2098384297       14.2105005146        9.3225772056
  O        10.7354207047       14.5067172245       10.6642858413
  O        12.5718936187       14.5829728454        9.3283445189
  O        22.8448518649        2.0444704977        5.4870566899
  O        21.6048106506        3.5921504975        6.5905583025
  O        42.0576358986       34.1367874472        7.9787495614
  O        37.9807550928       33.1335683407        5.5715351947
  O        39.2164242905       31.5738635254        6.6646600727
  O        20.3081396550        1.0390625860        6.5019827166
  O        38.0242177543       33.1845296859       10.4159681453
  O        39.2177778192       31.5824954260        9.3281175688
  O        40.6520802642       33.7689466698       10.0600355185
  O        18.2559946083        1.3752046299        7.9967832643
  O        44.6221528087       35.1005606237        6.7586709529
  O        24.2053373610       -0.0000124269        9.3207897795
  O        22.7531125768        2.0574819776       10.5839998593
  O        21.6248129813        3.5965280737        9.3437026371
  O        27.6216594941       18.6857883463        5.4131677784
  O        26.7387050627       16.9986673597        6.6607762476
  O        30.6379448103       19.3472897967        8.0741394627
  O        33.6293566654       16.3300049583        5.7516443914
  O        34.3063160354       18.2524001506        6.7501298877
  O        29.5885409329       17.0276530354        6.5976728006
  O        33.5394563109       16.3269639572       10.5022693916
  O        34.2692168027       18.1782087817        9.4115728960
  O        31.6462710273       18.3166773230       10.1758653099
  O        30.3234500358       15.1519910965        8.1467125299
  O        28.5562318776       21.0252694411        6.9041742564
  O        28.5159081233       20.9541865474        9.4130107328
  O        27.4544861698       18.6800026060       10.6583021981
  O        26.6922543954       16.9299209995        9.4155698512
  O        13.1476215599       18.6933410184       10.5873192011
  O        13.9199804361       16.9164834251        9.4058985975
  O        50.5962227656       19.3501490686        8.0199933509
  O        47.6821737483       16.3271947412       10.4173145086
  O        46.9514835214       18.1759242194        9.3245647123
  O        11.0701616729       17.0152090882        9.4894235635
  O        47.6759207177       16.3354975695        5.6526357450
  O        46.9288633196       18.2356474536        6.6649890323
  O        49.5688141145       18.3176060765        5.9822170128
  O        10.3187930596       15.1002452680        7.9970725121
  O        52.6707239881       21.0278341219        9.2418084988
  O        12.1468453230       20.8911281877        6.6731830012
  O        13.1099204344       18.6141729273        5.3252843601
  O        13.9605023870       16.9885287246        6.6627189242
  O        29.9891018588       14.4373687981       10.7369568752
  O        28.0871802791       14.6529155200        9.4980450595
  O        32.1363912167       16.8549039762        8.1447146906
  O        30.9637779522       20.9447708842       10.4115182856
  O        32.9444868918       20.5975887122        9.3378631360
  O        29.5654561558       17.0766705434        9.5818668754
  O        30.8370353794       20.7380666667        5.4932991789
  O        32.7846993506       20.5884287908        6.6638915014
  O        31.6814046833       18.2345321494        5.9990084050
  O        28.2836519993       18.6740272496        8.0788228345
  O        32.4934232775       14.2148050912        9.3507493412
  O        32.4111635567       14.2092102574        6.8253398814
  O        29.9101471899       14.4375901769        5.5024598713
  O        28.0100844233       14.6463192029        6.7403887835
  O        17.8891752517        1.9664323624       10.6627901476
  O        18.9562118240        3.5269827776        9.4079685789
  O        39.1685332623       34.1382984134        7.9969858193
  O        43.2800896312       33.0588187877       10.3316136823
  O        42.0342018810       31.5064985161        9.2414947226
  O        20.3173971445        1.0363486269        9.4804570159
  O        43.2759975996       33.1824682197        5.5749104316
  O        42.0051589453       31.5840793684        6.5830158361
  O        40.5787421301       33.7745850397        5.9355013036
  O        22.3671068829        1.3844199224        7.9979435976
  O        36.6727885094       35.0996089855        9.2333892144
  O        16.4457024172        0.0638428579        6.6680912859
  O        17.9364921712        2.0433049488        5.3263691256
  O        18.9190063039        3.5930441142        6.6660418358
  O        29.7483604829       18.8317539598       12.0556677460
  O        31.4289905700       16.1987195076        4.1631199623
  O        31.2136004108       16.4227716133       12.1547999378
  O        28.9453289529       17.5891690962        1.8277132183
  O        30.0374324690       15.9773028947       14.6603205299
  O        30.7978029504       20.3863324350       14.6564406451
  O        31.3550699152       19.2760128451        1.0750913685
  O        28.8115006189       18.4035961409       14.3212265663
  O        39.4567651205       35.2437187277        4.0020098895
  O        19.1415960158        0.0046212823       11.9905043063
  O        41.9696470655       35.1727725293        4.0872897134
  O        21.6913240931       -0.0694169196       11.8957950954
  O        51.3652324086       18.6141781113        4.0054902990
  O        10.7507995632       18.7472152072       11.9048674658
  O        50.0798996636       16.4128505148        4.0917664193
  O         9.5241773607       16.4831483911       11.9911462334
 Zr         9.2964032684       16.0527148024        6.1825763396
 Zr        49.8360644670       16.0068151048        9.7464550227
 Zr        22.0728927788        0.0291841411        6.1891005841
 Zr        42.4605983716       35.1525931096        9.8006071365
 Zr        29.6164640367       19.0554689047        6.3367817495
 Zr        29.5667779768       19.1655325409        9.9109953905
 Zr        11.0374143951       19.0518740739        9.8274293380
 Zr        11.0439772474       19.1545845860        6.2507868473
 Zr        31.3232673096       16.1051487240        9.9550385025
 Zr        31.4191899569       16.0042515231        6.3479724421
 Zr        18.6006992540       -0.0026534547        9.7636871638
 Zr        18.5062548853       -0.0091480871        6.2132139480
 Zr        12.3025725209       16.3239322811        7.9894470829
 Zr        48.6160236747       18.8331202849        8.0104604085
 Zr        20.3146943436        2.4725415354        7.9908976410
 Zr        40.6421227084       32.6855896496        7.9776964609
 Zr        28.3364339851       16.3380782803        8.0952868246
 Zr        32.6370871015       18.8230712880        8.0785431891
  H        29.9154911457       18.3030438695        4.0950252326
  H        30.9229319149       18.9411573684        1.9045302850
