     573
 i =      237, E =     -4762.8035711826
  C        11.8587964095       14.0535070953        5.7415309621
  C        12.4563041173       12.8906231404        5.0232092434
  C        11.7044868347       12.1713973581        4.0818634659
  C        12.2808820136       11.1091881247        3.3895421131
  C        13.6215865430       10.7396927579        3.6169944483
  C        14.3549248975       11.4436184506        4.5900669695
  C        13.7820248503       12.5086086391        5.2815460048
  C        14.2610842424        9.6489868703        2.8436233911
  C        14.2562970357        9.6568395975        1.4219314189
  C        13.7430523153       10.7589301026        0.6680411909
  C        49.1269857389       21.2331699616        5.8796284761
  C        48.5502641807       22.4012045020        5.1525671001
  C        49.3002567744       23.0684782577        4.1715241980
  C        48.7333223052       24.1076509971        3.4383519362
  C        47.4028333351       24.5093701235        3.6670755464
  C        46.6719393530       23.8605551960        4.6806591028
  C        47.2343803597       22.8156218183        5.4099695820
  C        46.7725073882       25.5870272072        2.8698143596
  C        46.7613033010       25.5573310331        1.4480611543
  C        47.2612295704       24.4422395297        0.7045649936
  C        14.8602636284        8.5705192052        0.7086716512
  C        14.8919504754        8.5971094576        3.5202874673
  C        49.1133159542       21.2034365786       10.1453541858
  C        48.5279190450       22.3648281949       10.8725753760
  C        49.2670816770       23.0254549095       11.8655820091
  C        48.6907389719       24.0600179910       12.5970438772
  C        47.3603791201       24.4568800182       12.3586964663
  C        46.6400602556       23.8120978256       11.3350289279
  C        47.2136263195       22.7761916274       10.6032581970
  C        46.7218575499       25.5318205866       13.1497141719
  C        46.7334372821       25.5281097065       14.5714228565
  C        47.2489100019       24.4289128410       15.3278062052
  C        40.6346484205       17.1587507114       15.3215710530
  C        40.6565394169       17.1784239870       12.5125700966
  C        11.8831134318       14.0865120567       10.2855061153
  C        12.4724728582       12.9108066908       10.9897928403
  C        11.7148802980       12.1774064991       11.9156906255
  C        12.2814970644       11.0949641234       12.5840942401
  C        13.6204139712       10.7214507717       12.3524690393
  C        14.3584976425       11.4372585977       11.3919319914
  C        13.7930438184       12.5184164077       10.7192402794
  C        14.2539862185        9.6246685334       13.1228699744
  C        14.2525517871        9.6445448657       14.5447100337
  C        13.7425620633       10.7534336726       15.2917894243
  C        22.5133817194        3.2444343208        5.7534521124
  C        23.2316502496        4.3480433754        5.0550973468
  C        24.2286898241        4.0645520468        4.1098386687
  C        24.8600601959        5.1016335750        3.4281473670
  C        24.5105073009        6.4448074274        3.6713851310
  C        23.5418016239        6.7198085587        4.6538786267
  C        22.9056420613        5.6844621598        5.3340278829
  C        25.1205217747        7.5488034064        2.8952041673
  C        25.0916553013        7.5414253381        1.4736925006
  C        24.3845199923        6.5448355954        0.7286242644
  C        38.2987953832       31.9280061301        5.8516114786
  C        37.5588119582       30.8388862624        5.1490399126
  C        36.5937547259       31.1454707637        4.1772434327
  C        35.9650587998       30.1273571425        3.4654220169
  C        36.2860906105       28.7763080704        3.7022845653
  C        37.2205918858       28.4770542134        4.7116633097
  C        37.8532852453       29.4942001537        5.4228142869
  C        35.6769279919       27.6879848765        2.9028312752
  C        35.7172950618       27.7032531107        1.4811209272
  C        36.4311509563       28.7035795103        0.7484639044
  C        25.7171615661        8.6093007491        0.7528128465
  C        25.7214140982        8.6220993278        3.5651328869
  C        38.3307566885       31.9616156443       10.1596925044
  C        37.6138384004       30.8888747244       10.9089010109
  C        36.6821224992       31.1992649764       11.9114380355
  C        36.0722127183       30.1826479456       12.6443343769
  C        36.3791800349       28.8292750579       12.3985596852
  C        37.2917165175       28.5287180853       11.3686405009
  C        37.9035374539       29.5419153793       10.6369877486
  C        35.7641308802       27.7312669960       13.1802934327
  C        35.7615676534       27.7256761203       14.6027701406
  C        36.4509985187       28.7151698426       15.3718068595
  C        46.1353956267       26.6207301529       15.2815635416
  C        46.0879602933       26.5802173098       12.4736568105
  C        22.4611478154        3.2558575932       10.2580083204
  C        23.1557513526        4.3636063988       10.9814671334
  C        24.1572352063        4.0758140125       11.9225015174
  C        24.7864227514        5.1046745035       12.6191294355
  C        24.4345664938        6.4512565924       12.3974328702
  C        23.4559902279        6.7322608964       11.4250760938
  C        22.8220561737        5.7036153073       10.7289135296
  C        25.0681380164        7.5479224557       13.1713732204
  C        25.0648243192        7.5406432303       14.5942646915
  C        24.3699576498        6.5454708962       15.3517869562
  C        26.6276796181       17.8622041765        5.7816286690
  C        25.3197554899       17.9067725908        5.0572343557
  C        25.0653898999       18.8946455229        4.0929543558
  C        23.8509592823       18.9154301876        3.4091742714
  C        22.8549871111       17.9509140819        3.6658085686
  C        23.1066447535       16.9854365199        4.6589213574
  C        24.3224172548       16.9597636414        5.3410825305
  C        21.5810215461       17.9347597379        2.9021432992
  C        21.5795293750       17.9074713000        1.4795348426
  C        22.7842453740       17.7779474139        0.7186815386
  C        34.4364490243       17.1952972624        5.9179435552
  C        35.7271088517       17.1509441836        5.1702223933
  C        35.9232841581       16.2007492457        4.1561181187
  C        37.1044288150       16.1935749717        3.4192192455
  C        38.1203998000       17.1346388021        3.6773323736
  C        37.9254925661       18.0651759101        4.7157827308
  C        36.7418449388       18.0784755089        5.4494895506
  C        39.3758222634       17.1485564225        2.8936102527
  C        39.3741723827       17.1745853252        1.4722308213
  C        38.1692158187       17.3057862567        0.7124590570
  C        20.3327489473       17.9259126101        0.7710658679
  C        20.3557761896       17.9409325957        3.5841997662
  C        34.4753225385       17.2450717215       10.1823194192
  C        35.7790796188       17.1718908992       10.9038268327
  C        35.9916846749       16.1966853694       11.8895419611
  C        37.1777044626       16.1840256714       12.6181646951
  C        38.1790080078       17.1451682321       12.3790725164
  C        37.9732279793       18.0940464526       11.3604384392
  C        36.7848597009       18.1125156284       10.6356379592
  C        39.4248237519       17.1693377757       13.1754313845
  C        39.3991980092       17.1848853361       14.5961280313
  C        38.1808381787       17.3080846175       15.3357485341
  C        35.1216625390       26.6489085115       15.3023983058
  C        35.1769760516       26.6612443175       12.4928291029
  C        26.5707998117       17.8258154402       10.3256343104
  C        25.2565670814       17.8698895869       11.0331639786
  C        24.9947084157       18.8699494702       11.9819915573
  C        23.7769673930       18.8939880920       12.6560696354
  C        22.7916813977       17.9178190622       12.4054400167
  C        23.0481797022       16.9428539987       11.4244077951
  C        24.2665912555       16.9167167684       10.7484252086
  C        21.5282588155       17.8984083516       13.1787470710
  C        21.5526735421       17.8880893642       14.6003372201
  C        22.7708212220       17.7690024364       15.3422702268
  C        14.0469026099       17.8284137763       10.2896202765
  C        15.3507514134       17.8842738769       11.0161527651
  C        15.6071705287       18.8859761349       11.9655367286
  C        16.8157354438       18.9056038874       12.6593282736
  C        17.8026010587       17.9263103150       12.4262903197
  C        17.5508443108       16.9488325804       11.4448928440
  C        16.3417833562       16.9246116673       10.7526218909
  C        19.0719179905       17.9083599097       13.1953318900
  C        19.0713434156       17.9054383120       14.6179756409
  C        17.8647043617       17.8079836650       15.3799542758
  C        46.8072238567       17.2204841950       10.1597403636
  C        45.5196775795       17.1651973964       10.9086552247
  C        45.3139452279       16.1939653620       11.9003545287
  C        44.1340974322       16.1843640772       12.6393127418
  C        43.1316324096       17.1459159929       12.4069022619
  C        43.3348957806       18.0970150533       11.3891430834
  C        44.5154380663       18.1108404830       10.6517368864
  C        41.8788052387       17.1643552428       13.1941017957
  C        41.8826196454       17.1681187744       14.6156166442
  C        43.0904686132       17.2612192023       15.3762463902
  C        20.3184987967       17.9152719495       15.3258742280
  C        20.2958927174       17.8884038096       12.5125950110
  C        46.7855276501       17.2311399607        5.8901498196
  C        45.4809356983       17.1271209499        5.1770178518
  C        45.2610104336       16.1344052473        4.2103460639
  C        44.0722956290       16.1132499246        3.4850190266
  C        43.0746458355       17.0815046452        3.7101027156
  C        43.2840081314       18.0422906199        4.7167826240
  C        44.4739848309       18.0702468164        5.4366186196
  C        41.8298175686       17.1130398341        2.9116473719
  C        41.8577358947       17.1405564690        1.4911128669
  C        43.0786370712       17.2456103024        0.7528851392
  C        46.1532085438       26.6371740188        0.7263262712
  C        46.1626524570       26.6561916620        3.5359485640
  C        14.0463346302       17.8322694862        5.7091006209
  C        15.3681310338       17.9076142326        5.0201658802
  C        15.6418362074       18.9223041107        4.0907806124
  C        16.8715325474       18.9598932386        3.4371281796
  C        17.8555148146       17.9820011914        3.6868230170
  C        17.5888534921       16.9967853035        4.6549702466
  C        16.3611677022       16.9585722039        5.3120734314
  C        19.1228908794       17.9558988259        2.9176852352
  C        19.0979078557       17.9281229218        1.4962415102
  C        17.8777746520       17.8179004987        0.7561569646
  C        28.8106605054       14.0901785154       10.3903595788
  C        28.2005971607       12.9133091601       11.0748870811
  C        28.9275113623       12.1685804077       12.0155421731
  C        28.3299922676       11.0931142937       12.6679859458
  C        26.9915578872       10.7382944686       12.4039060223
  C        26.2868387189       11.4623799305       11.4254659006
  C        26.8821248773       12.5379482203       10.7711469740
  C        26.3243052686        9.6583765974       13.1668085081
  C        26.3182436411        9.6823849539       14.5880722169
  C        26.8295435376       10.7918701795       15.3336108704
  C        32.1803534290       21.2410355167       10.1429302278
  C        32.7744224475       22.4093840729       10.8617289063
  C        32.0218594368       23.0913220120       11.8305656346
  C        32.5898808284       24.1317363617       12.5599981157
  C        33.9268504294       24.5183316600       12.3430717513
  C        34.6621043930       23.8548259681       11.3425195455
  C        34.0960552741       22.8095072245       10.6142882975
  C        34.5528941442       25.5934428410       13.1474502899
  C        34.5322370869       25.5670789026       14.5693321154
  C        34.0112935733       24.4556530733       15.3043911420
  C        25.7075831636        8.6055661808       15.3078483462
  C        25.6830121940        8.6098814129       12.4944085178
  C        32.0800686871       21.2009943245        5.8751704748
  C        32.6496294252       22.3617331955        5.1277178558
  C        31.9152010627       23.0135644271        4.1249833018
  C        32.4882308886       24.0540811232        3.3954169801
  C        33.8097736078       24.4729137457        3.6484682661
  C        34.5258369988       23.8337096404        4.6790857111
  C        33.9580614503       22.7900168087        5.4042226975
  C        34.4506766049       25.5589529304        2.8698111008
  C        34.4785335001       25.5500560288        1.4477279730
  C        33.9845234895       24.4481352907        0.6808706385
  C        40.6216738431       17.1490012280        0.7657321267
  C        40.5982055930       17.1341502607        3.5750038491
  C        28.7530670979       14.0692837574        5.8158880253
  C        28.1476205762       12.9203751317        5.0772533356
  C        28.8888238205       12.2168564363        4.1156074814
  C        28.3111004499       11.1580318460        3.4185872542
  C        26.9762228079       10.7752090267        3.6590284502
  C        26.2518971463       11.4658214340        4.6486282958
  C        26.8277949589       12.5256539572        5.3465034118
  C        26.3359353241        9.6827497696        2.8869887030
  C        26.3261357859        9.6945103182        1.4650849290
  C        26.8316144269       10.7989914300        0.7097096512
  C        18.1354666562        3.1810539117       10.3171531062
  C        17.4062495242        4.2782674994       11.0157745338
  C        16.3903984260        3.9999512422       11.9431729607
  C        15.7427150485        5.0399480647       12.6066684803
  C        16.0947905773        6.3836607150       12.3671061245
  C        17.0843219533        6.6531508127       11.4034766627
  C        17.7333748018        5.6157846120       10.7384208560
  C        15.4704394368        7.4913500920       13.1301553657
  C        15.4855690705        7.4905575917       14.5518760147
  C        16.1871068515        6.4969281882       15.3050533798
  C        42.9458299318       31.8595828754       10.0728628859
  C        43.6462204792       30.7718755745       10.8168089917
  C        44.5914728442       31.0932299938       11.8031302417
  C        45.1972042816       30.0876965956       12.5508050030
  C        44.8710619412       28.7345952992       12.3357287071
  C        43.9455762090       28.4202342962       11.3221968862
  C        43.3367468668       29.4253624560       10.5741488176
  C        45.4886086514       27.6552752455       13.1389299256
  C        45.4926710709       27.6808477249       14.5606344087
  C        44.8055914335       28.6888865914       15.3072865059
  C        14.8565426856        8.5630165031       15.2642420312
  C        14.8752730096        8.5631898084       12.4515621647
  C        42.9464868655       31.9616936183        5.8089876047
  C        43.6918103500       30.8855419588        5.0955841703
  C        44.6561977483       31.1914629827        4.1230849007
  C        45.2777518407       30.1718772697        3.4053748450
  C        44.9542117525       28.8215386339        3.6431961533
  C        44.0210248631       28.5238762975        4.6542525713
  C        43.3927286372       29.5406285997        5.3664198311
  C        45.5631957512       27.7241209113        2.8579305616
  C        45.5332829581       27.7173437125        1.4366372225
  C        44.8269082204       28.7075345009        0.6836821315
  C        35.0966893632       26.6390741755        0.7478067027
  C        35.0614190120       26.6152668183        3.5582229565
  C        18.1486564072        3.2470564968        5.7065813541
  C        17.4301083768        4.3438479533        4.9973223684
  C        16.4147251388        4.0526013411        4.0739209544
  C        15.7664338393        5.0832424631        3.3985490942
  C        16.1212688448        6.4284652489        3.6211326210
  C        17.1128532990        6.7118281620        4.5781857142
  C        17.7605175396        5.6829055319        5.2579466312
  C        15.4907178415        7.5241427276        2.8486962361
  C        15.4965260734        7.5074469368        1.4275627094
  C        16.1932976081        6.5057421937        0.6808712384
  H        10.6722410311       12.4652643828        3.9050943835
  H        11.6945132766       10.5504511522        2.6632679730
  H        15.3921073435       11.1693777736        4.7714706038
  H        14.3516701716       13.0721567154        6.0165934019
  H        13.3760118583       11.6310315193        1.2013627760
  H        50.3229517726       22.7484079777        3.9867431609
  H        49.3198203253       24.6229025021        2.6807769792
  H        45.6425162915       24.1614607219        4.8639580023
  H        46.6634574666       22.2904163097        6.1721502846
  H        47.6299067241       23.5759287512        1.2462524358
  H        14.8724572732        8.5884593565        4.6085964364
  H        50.2871105682       22.7025691298       12.0605410174
  H        49.2691278747       24.5754341505       13.3605790223
  H        45.6107393332       24.1095142069       11.1458006266
  H        46.6529281244       22.2541389617        9.8315353874
  H        47.6077918683       23.5518433943       14.7968969418
  H        40.6645413264       17.1403399407       11.4249814677
  H        48.6870709234       14.0949851473        7.8000287511
  H        10.6813173460       12.4662687777       12.0928913521
  H        11.6896523006       10.5243648871       13.2965808024
  H        15.3940434795       11.1596322889       11.2062335775
  H        14.3655164800       13.0879999212        9.9909799914
  H        13.3757515950       11.6220525538       14.7531510795
  H        47.9303359760       14.2180428757        9.7110585331
  H        47.7800600497       14.3734483589        6.4951456219
  H        49.0848015267       18.5528194383       10.8676900354
  H        10.4162677978       14.1342570984        7.9986953251
  H        24.4864208075        3.0250701953        3.9195888907
  H        25.6331192196        4.8812287524        2.6951849454
  H        23.2645313367        7.7537979459        4.8483386092
  H        22.1355837881        5.8879471241        6.0741624412
  H        23.8219109607        5.7897074492        1.2697908326
  H        36.3612508100       32.1895367442        3.9812440558
  H        35.2176629789       30.3701556725        2.7132220333
  H        37.4767491969       27.4370077091        4.9029539317
  H        38.6004008993       29.2696373691        6.1804650861
  H        36.9939912268       29.4521491008        1.2984168251
  H        25.7559952018        8.6061234535        4.6529821278
  H        36.4553671735       32.2437632393       12.1130631722
  H        35.3430530608       30.4300512243       13.4126981979
  H        37.5423289503       27.4883186630       11.1723653355
  H        38.6289594260       29.3139233756        9.8597988685
  H        37.0300638435       29.4723153648       14.8508450418
  H        46.1095799314       26.5877262414       11.3856228502
  H        44.6683905518       35.1162442424        7.8139698267
  H        24.4335323148        3.0371562523       12.0893006287
  H        25.5668265727        4.8743313040       13.3412622879
  H        23.1726698630        7.7672628543       11.2447493557
  H        22.0508968386        5.9181079355        9.9926227831
  H        23.7956485343        5.7913699820       14.8214733619
  H        44.9542099297       34.3907271561        9.6953598599
  H        44.9022294665       34.2069797809        6.4906386701
  H        40.6666145616       33.2095448767       10.8533485873
  H        23.1505017391        1.9579497077        8.0054251211
  H        25.8333330698       19.6386167104        3.8933171996
  H        23.6590293774       19.6883862176        2.6679836018
  H        22.3504997325       16.2309851490        4.8664831297
  H        24.5267982977       16.2001753382        6.0920481498
  H        23.7244518124       17.6556526990        1.2486162228
  H        35.1331630579       15.4810335806        3.9547663837
  H        37.2569247008       15.4481891552        2.6416910344
  H        38.7020791882       18.7996931273        4.9190181789
  H        36.5744360439       18.8107366087        6.2359791419
  H        37.2302154871       17.4314262147        1.2436240278
  H        20.3627939884       17.9853172643        4.6719035900
  H        35.2084963762       15.4666555632       12.0805571445
  H        37.3426739275       15.4252403279       13.3800250140
  H        38.7411741628       18.8413068651       11.1714427361
  H        36.6026188978       18.8628082410        9.8698927912
  H        37.2508428486       17.4343548922       14.7889800355
  H        35.1589027600       26.6867298795       11.4049181764
  H        28.5080111628       21.0783801991        7.9697178492
  H        25.7577466716       19.6210482414       12.1731004178
  H        23.5733021348       19.6742263280       13.3863140271
  H        22.2958900999       16.1825011819       11.2246208177
  H        24.4802842522       16.1525171249       10.0048892059
  H        23.7008550073       17.6394862558       14.7970047298
  H        28.9976468937       21.7217827612        9.7657358098
  H        29.1568421096       21.7433215108        6.6238598776
  H        32.1050999263       18.5637626347       10.9803454491
  H        27.4040534508       19.0716215765        8.0781673317
  H        14.8489557973       19.6450944288       12.1444063772
  H        17.0104817707       19.6889143759       13.3887497164
  H        18.3020252117       16.1847363737       11.2555058483
  H        16.1365059021       16.1565193867       10.0107511009
  H        16.9218013256       17.6925936822       14.8533423219
  H        46.0954249077       15.4605434301       12.0847024857
  H        43.9735185124       15.4236619459       13.4000830754
  H        42.5681631726       18.8470936661       11.2067947905
  H        44.6904050693       18.8591001855        9.8823245129
  H        44.0329861368       17.3755718737       14.8484494153
  H        20.2894106673       17.9192902299       11.4244808281
  H        46.0374523270       15.3948425482        4.0282704597
  H        43.9043986303       15.3439741712        2.7344105437
  H        42.5180331905       18.7935831209        4.8972752792
  H        44.6582572233       18.8318407888        6.1902764388
  H        44.0121642028       17.3466937826        1.2988191564
  H        46.1997524073       26.6828545279        4.6233766290
  H        52.7413137124       21.0626879076        8.1947083118
  H        14.8810054706       19.6752470221        3.8971460947
  H        17.0825492219       19.7495938943        2.7192329103
  H        18.3399192860       16.2355851567        4.8559480816
  H        16.1402604859       16.1847029448        6.0431724600
  H        16.9445601713       17.7102231727        1.3007770515
  H        52.3229284781       21.6734106741        6.2940951824
  H        52.0135311478       21.7022567944        9.4956979490
  H        49.0679407382       18.6076961807        5.2039272599
  H        13.2478696966       19.0160225813        7.9775346398
  H        29.9585645059       12.4471914953       12.2214956843
  H        28.8952957934       10.5149168287       13.3957219737
  H        25.2528812762       11.1978418238       11.2135892222
  H        26.3355951107       13.1182068720       10.0317134921
  H        27.1954188023       11.6591581823       14.7924639171
  H        30.9950505936       22.7798138519       12.0071445010
  H        31.9998670499       24.6596269306       13.3061129481
  H        35.6968089505       24.1432653716       11.1686296327
  H        34.6697488437       22.2722967561        9.8624369497
  H        33.6542365778       23.5896048285       14.7546370139
  H        25.7087900092        8.5921204043       11.4062645261
  H        30.8972475783       22.6889478503        3.9216947140
  H        31.9095534379       24.5599236701        2.6255062749
  H        35.5487437608       24.1442479424        4.8818505576
  H        34.5175787479       22.2764156614        6.1824252341
  H        33.6064676102       23.5757937376        1.2060615545
  H        40.5894676674       17.0848682307        4.6621849833
  H        32.5070328999       14.1523864969        8.2598618415
  H        29.9197907244       12.5109612323        3.9328600813
  H        28.8940114630       10.6094100513        2.6818858977
  H        25.2188757582       11.1833506351        4.8410228621
  H        26.2648488234       13.0747029121        6.0975673621
  H        27.1977307487       11.6718805686        1.2423880770
  H        33.3066147345       14.2230241012        6.4609611392
  H        33.4083865179       14.4120040075        9.6004534888
  H        32.1179818624       18.5177638777        5.1815120937
  H        30.2265945909       14.1931089892        8.0717491357
  H        16.1181929323        2.9634724316       12.1294767123
  H        14.9531485974        4.8206180663       13.3222188158
  H        17.3669298021        7.6860069058       11.2104905675
  H        18.5155534200        5.8184606326       10.0107290009
  H        16.7537578475        5.7396496665       14.7715570308
  H        44.8275883292       32.1403283792       11.9774609798
  H        45.9369160809       30.3415120232       13.3068856695
  H        43.6832536699       27.3781185165       11.1517897395
  H        42.6004977087       29.1900149480        9.8091357167
  H        44.2303165425       29.4367230113       14.7689876933
  H        14.8516963017        8.5465379079       11.3633328274
  H        44.8995941415       32.2341535963        3.9314867124
  H        46.0245272148       30.4131561375        2.6520251208
  H        43.7643883888       27.4841223164        4.8460900444
  H        42.6464851222       29.3178420161        6.1251170854
  H        44.2685197623       29.4705062628        1.2182627773
  H        35.0128381152       26.6270945089        4.6454861255
  H        36.6052621084       35.1340963527        8.1806303935
  H        16.1434974402        3.0130478074        3.9043149126
  H        14.9739817493        4.8564457981        2.6885905240
  H        17.3965853682        7.7472689868        4.7548880991
  H        18.5436149097        5.8933930697        5.9824625565
  H        16.7647966232        5.7555475166        1.2193075309
  H        36.2786628128       34.4825223327        6.2730026210
  H        36.3809141752       34.2091037778        9.4994434379
  H        40.5796127565       33.2022886463        5.1536977667
  H        17.4710619522        1.9474599961        7.9740601269
  H        28.9088461693       19.1951032134       12.3666583129
  H        29.9655837300       19.7111918289        3.6620705607
  H        31.2804861215       15.6084597732        3.5271120347
  H        31.2497837813       15.5820956868       12.5652408044
  H        27.7305890499       17.7786278417       14.6424078902
  H        29.4831572004       15.3286615670       14.7120985090
  H        32.1545304282       19.7474410816        1.7632396523
  H        32.9033842913       17.4019712138        1.3297949117
  H        32.1495357367       18.7009718135       14.6414271631
  H        18.8533260908        0.8688876875       12.3352452429
  H        40.5283468320       35.2288956348        3.9519596034
  H        42.3242183839       34.4188757614        3.5901942220
  H        22.0875396233        0.6922525502       12.3515040217
  H        11.5968253321       18.7132101222       12.3826645986
  H        52.2648651863       18.4312906771        3.6770379210
  H        49.2552719818       16.4767254481        3.5843484177
  H        10.1509206063       15.7981442944       12.2924872021
  H        50.8501429096       17.6924153053        3.9542068190
  H        10.0465428652       17.3945178419       12.0519355216
  H        20.2147340697        0.0022651424       12.0419509224
  H        39.1840767936       36.1248419803        3.6866422161
 Ni        31.1161315814       17.8662548812        2.9149503585
 Ni        31.1554801885       16.4263991212        0.0047197153
 Ni        30.2271128634       18.9574973524        0.4146922716
 Ni        30.1849505825       17.5222198070       13.4012576974
  O        10.6499265912       14.3650965665        5.4858497877
  O        12.6131653261       14.6575161270        6.5838885543
  O        49.1481041662       16.8458289960        7.9896998543
  O        50.3503331227       20.9357751576        5.6479738960
  O        48.3485940458       20.5933688781        6.6658672569
  O        11.0518444139       17.0537548296        6.5007492224
  O        50.3210498715       20.8816717786       10.4068680421
  O        48.3467647803       20.5868100488        9.3271510443
  O        49.5439046932       18.2484067769       10.0682312736
  O        12.3592128232       18.6246393343        7.9997031148
  O        48.6932721757       14.1485837464        6.7513007300
  O         8.2099368827       14.2103884490        9.3225287504
  O        10.7354304479       14.5067323115       10.6642996825
  O        12.5718651129       14.5828231220        9.3284897454
  O        22.8445398335        2.0427626692        5.4872599837
  O        21.6060951281        3.5925404887        6.5891587788
  O        42.0581363459       34.1373845377        7.9789076961
  O        37.9812370930       33.1363538866        5.5723042411
  O        39.2173609074       31.5750296880        6.6659394365
  O        20.3084446204        1.0396102953        6.5021707537
  O        38.0245489734       33.1853777611       10.4155612452
  O        39.2186120389       31.5831791932        9.3271913834
  O        40.6522368539       33.7693491767       10.0601316728
  O        18.2556282946        1.3761178608        7.9967386461
  O        44.6222108036       35.1005524704        6.7587891916
  O        24.2053934763        0.0000196820        9.3207629817
  O        22.7529223594        2.0574817553       10.5837446997
  O        21.6246580400        3.5962084952        9.3430385626
  O        27.5021727861       18.7532799542        5.4975942940
  O        26.7673906451       16.9340478647        6.6543448568
  O        30.6659840343       19.4004523396        8.0634539192
  O        33.5847326449       16.2757802701        5.6667295170
  O        34.2747469671       18.1679994838        6.7356617995
  O        29.5743468733       17.0623525296        6.5808464184
  O        33.6154623576       16.3296094868       10.4149205335
  O        34.3056770099       18.2459763223        9.4068830188
  O        31.6558498863       18.3130444627       10.1571942632
  O        30.3242559365       15.1593561168        8.0878162637
  O        28.5539727845       21.0309264118        6.9012111682
  O        28.5135969566       20.9559010755        9.4131881490
  O        27.4571711282       18.6788446413       10.6596243157
  O        26.6940379932       16.9290383811        9.4138007726
  O        13.1489508538       18.6928462747       10.5875758672
  O        13.9195561601       16.9162970525        9.4052168496
  O        50.5965330851       19.3502817171        8.0203979291
  O        47.6836599367       16.3270042545       10.4173408248
  O        46.9525755573       18.1760978090        9.3239693234
  O        11.0700385989       17.0154163944        9.4896117696
  O        47.6756726341       16.3356635941        5.6528476527
  O        46.9278604794       18.2358901074        6.6650275598
  O        49.5689072350       18.3176937092        5.9822553643
  O        10.3187414547       15.1000938983        7.9970783121
  O        52.6707950665       21.0278612163        9.2418176794
  O        12.1468525213       20.8911811143        6.6732641979
  O        13.1083976597       18.6135841254        5.3255964888
  O        13.9573431533       16.9871318913        6.6653915004
  O        29.9938334599       14.4430833334       10.7325659016
  O        28.0896911241       14.6533153761        9.4955226331
  O        32.1328071219       16.8528494057        8.0856412135
  O        30.9670088721       20.9520375354       10.4094963269
  O        32.9478150854       20.6015644476        9.3381256475
  O        29.5694447229       17.0734850885        9.5754514534
  O        30.8512429243       20.8884974017        5.6568802985
  O        32.8701786967       20.5867813005        6.6633592545
  O        31.6874550571       18.2472337797        6.0103182048
  O        28.2899194702       18.6740944914        8.0780861020
  O        32.4914914029       14.2154513326        9.3329299309
  O        32.4046855568       14.2152989443        6.8230868695
  O        29.9275948413       14.4425883739        5.4898411779
  O        28.0436428591       14.5872278784        6.7497036360
  O        17.8892726459        1.9666026897       10.6627709000
  O        18.9562596540        3.5271154731        9.4079329095
  O        39.1685670318       34.1386836367        7.9970973808
  O        43.2801908394       33.0589391407       10.3316976024
  O        42.0343933019       31.5064622525        9.2416175648
  O        20.3177097055        1.0368660378        9.4800090016
  O        43.2760794055       33.1826028511        5.5748820523
  O        42.0052405972       31.5841123014        6.5829744262
  O        40.5789097922       33.7749499937        5.9358240966
  O        22.3673707732        1.3847058476        7.9979432294
  O        36.6728109319       35.0997561212        9.2332762108
  O        16.4457064565        0.0642227336        6.6682286658
  O        17.9365312434        2.0433576588        5.3264223314
  O        18.9191290984        3.5931230382        6.6659311309
  O        29.9149437496       18.8274306091        4.0739766621
  O        29.7733312703       18.9114855565       12.0107345584
  O        31.2152446590       16.4035683770        4.0856276226
  O        31.2996389646       16.4246727262       12.0745650634
  O        32.1342030026       16.8612665733        1.5850856676
  O        30.2852594436       15.8294052908       14.4914802166
  O        31.3400695737       18.2380178342       14.9163539530
  O        31.2311565143       19.4933921751        1.9330617751
  O        28.3790178464       18.3830729515       14.2420391722
  O        39.4569625480       35.2440497625        4.0019837513
  O        19.1412942295        0.0044233172       11.9905205823
  O        41.9693103544       35.1723341038        4.0870606579
  O        21.6912314858       -0.0692593466       11.8958928357
  O        51.3650753405       18.6142931995        4.0053787895
  O        10.7511057499       18.7472112462       11.9049353017
  O        50.0796210508       16.4127727423        4.0917439258
  O         9.5249125581       16.4829880590       11.9912042718
 Zr         9.2975234046       16.0526623363        6.1825253972
 Zr        49.8370186824       16.0065263535        9.7462938200
 Zr        22.0735063905        0.0303566235        6.1888018094
 Zr        42.4611144953       35.1539411695        9.8010134172
 Zr        29.6043634808       19.0782679745        6.2861077698
 Zr        29.5844809126       19.1735121885        9.8661041283
 Zr        11.0387210607       19.0517670456        9.8277642484
 Zr        11.0446498428       19.1546678049        6.2508069531
 Zr        31.3440549101       16.1064752616        9.9060141160
 Zr        31.3906418030       16.0169488724        6.2904345611
 Zr        18.6014012699       -0.0008639864        9.7632616126
 Zr        18.5068301421       -0.0072904192        6.2136004955
 Zr        12.3029601516       16.3235672934        7.9902780349
 Zr        48.6175850050       18.8332418602        8.0100943941
 Zr        20.3157258927        2.4742953952        7.9904250393
 Zr        40.6436503570       32.6875019768        7.9780167227
 Zr        28.3425181257       16.3382379994        8.0811765539
 Zr        32.6302855176       18.8296270135        8.0563485098
  H        28.6322530683       19.0549746160       14.9760304672
  H        29.1556842656       19.9572663155       -0.0399359078
  H        30.7242369593       15.2561377427        0.7203332009
