     573
 i =      205, E =     -4762.8126391767
  C        11.8586865652       14.0534765538        5.7415878198
  C        12.4561424739       12.8905232093        5.0232975458
  C        11.7044517866       12.1716201730        4.0816085472
  C        12.2808212608       11.1094063317        3.3892654700
  C        13.6213851099       10.7395678464        3.6170200862
  C        14.3545383580       11.4431203865        4.5905142782
  C        13.7816714072       12.5081126557        5.2820143697
  C        14.2609107267        9.6488943748        2.8436262950
  C        14.2562306044        9.6568157192        1.4219250948
  C        13.7430919189       10.7589500569        0.6680157739
  C        49.1268411195       21.2332251485        5.8797329770
  C        48.5500942745       22.4011505157        5.1526537230
  C        49.3001096387       23.0684192466        4.1716053242
  C        48.7331753042       24.1075522093        3.4383997287
  C        47.4026604943       24.5092755981        3.6670517380
  C        46.6717674988       23.8604885249        4.6806713317
  C        47.2342004343       22.8155890238        5.4100423050
  C        46.7724032949       25.5869801067        2.8697976804
  C        46.7613858982       25.5573461727        1.4480331042
  C        47.2613721201       24.4422915636        0.7045151975
  C        14.8601775500        8.5704850345        0.7086535592
  C        14.8917021970        8.5969483521        3.5202714163
  C        49.1131293004       21.2034421513       10.1453435514
  C        48.5277632126       22.3648218858       10.8724449868
  C        49.2669649883       23.0254942029       11.8654146445
  C        48.6906490574       24.0600610475       12.5968650722
  C        47.3602531070       24.4568928127       12.3586067535
  C        46.6398752439       23.8120357248       11.3350193886
  C        47.2134136411       22.7761198956       10.6032353276
  C        46.7217675604       25.5318148801       13.1496684348
  C        46.7335624484       25.5281765941       14.5713746786
  C        47.2490671717       24.4289924128       15.3277529180
  C        40.6220262271       17.0928870408       15.3103282568
  C        40.6320346105       17.1068708906       12.5004034697
  C        11.8829747602       14.0865129136       10.2854972441
  C        12.4722506793       12.9106847847       10.9897040647
  C        11.7147792825       12.1775881082       11.9159383372
  C        12.2813457598       11.0951062629       12.5843290512
  C        13.6201278147       10.7212653740       12.3524332053
  C        14.3580160096       11.4366834280       11.3914475334
  C        13.7926171203       12.5178737144       10.7187660602
  C        14.2537129060        9.6244974908       13.1228397913
  C        14.2524164448        9.6444813881       14.5446823391
  C        13.7425721184       10.7534413653       15.2917603958
  C        22.5129616177        3.2439846915        5.7534436464
  C        23.2309015193        4.3474286699        5.0543214326
  C        24.2278151760        4.0633385980        4.1091932779
  C        24.8591233518        5.1000644556        3.4269502454
  C        24.5095491430        6.4432204952        3.6698545467
  C        23.5407749505        6.7188205066        4.6520529560
  C        22.9046918339        5.6838218471        5.3327342751
  C        25.1199220426        7.5469452442        2.8938130375
  C        25.0915110795        7.5401066050        1.4723207233
  C        24.3845053022        6.5438072547        0.7267411212
  C        38.2985204588       31.9281330856        5.8514159415
  C        37.5579896894       30.8400852991        5.1485492881
  C        36.5922172950       31.1482626566        4.1778691437
  C        35.9618185019       30.1313863494        3.4659534893
  C        36.2817880427       28.7797605923        3.7012502571
  C        37.2174271682       28.4789605859        4.7092456127
  C        37.8516517008       29.4948695169        5.4207701270
  C        35.6698266664       27.6926402784        2.9024882313
  C        35.7053277283       27.7088570208        1.4806451943
  C        36.4173799447       28.7093520416        0.7465490124
  C        25.7175114673        8.6080676203        0.7520305392
  C        25.7208422124        8.6198549712        3.5642455235
  C        38.3293591540       31.9607165953       10.1597154074
  C        37.6096146577       30.8887070516       10.9077549077
  C        36.6765783668       31.2004047143       11.9089475824
  C        36.0632718112       30.1850867904       12.6409992316
  C        36.3675464502       28.8306740616       12.3965768781
  C        37.2811091446       28.5288369707       11.3676806393
  C        37.8963161585       29.5408047452       10.6366997989
  C        35.7500523235       27.7339491678       13.1791866173
  C        35.7464225714       27.7298559905       14.6018838712
  C        36.4357152330       28.7202188108       15.3698496523
  C        46.1354906813       26.6207663125       15.2815328111
  C        46.0877513420       26.5801504268       12.4736300482
  C        22.4611528585        3.2557738729       10.2577571955
  C        23.1562493929        4.3637858234       10.9808519417
  C        24.1589559101        4.0761630048       11.9205802330
  C        24.7885003770        5.1051386107       12.6167931996
  C        24.4357371903        6.4515968568       12.3959334884
  C        23.4559159588        6.7324704653       11.4248343020
  C        22.8216915564        5.7036960428       10.7290632991
  C        25.0692096588        7.5482007923       13.1701297528
  C        25.0657430839        7.5402658242       14.5929799360
  C        24.3705670361        6.5448365832       15.3499101572
  C        26.6191141086       17.8621862310        5.7819512877
  C        25.3123419194       17.9121051456        5.0587116771
  C        25.0471144278       18.9212292796        4.1191591900
  C        23.8344134099       18.9440409098        3.4327395067
  C        22.8499628173       17.9621767981        3.6649470122
  C        23.1106586207       16.9761565009        4.6354489787
  C        24.3253806521       16.9473185801        5.3188802614
  C        21.5769192735       17.9504927807        2.8999887715
  C        21.5769138213       17.9352479801        1.4773287410
  C        22.7832192065       17.8244237737        0.7160825899
  C        34.4392704996       17.1933975243        5.9183814987
  C        35.7314012707       17.1423938538        5.1732749157
  C        35.9263245394       16.1818113669        4.1684818786
  C        37.1072217374       16.1651995051        3.4315066651
  C        38.1241864266       17.1084574668        3.6775490418
  C        37.9304741396       18.0500764172        4.7064129330
  C        36.7474986600       18.0717379776        5.4417127009
  C        39.3772682810       17.1147291879        2.8889000312
  C        39.3702269911       17.1239615283        1.4669270439
  C        38.1618569864       17.2456740363        0.7111329887
  C        20.3296174480       17.9470242126        0.7696575025
  C        20.3525257483       17.9473314476        3.5828900638
  C        34.4394998746       17.2371466635       10.1922006014
  C        35.7400195656       17.1380600867       10.9157580279
  C        35.9478838646       16.1572322375       11.8971281517
  C        37.1390560343       16.1277575926       12.6185681782
  C        38.1515730774       17.0774258785       12.3779623735
  C        37.9498263032       18.0310004147       11.3626308792
  C        36.7580421877       18.0659409465       10.6450855910
  C        39.4023090810       17.0937575770       13.1688055635
  C        39.3830015255       17.1123080453       14.5899435626
  C        38.1678274447       17.2375239498       15.3344837051
  C        35.1065283926       26.6536914972       15.3029800566
  C        35.1626208889       26.6628671040       12.4934959118
  C        26.5604333884       17.8215889985       10.3221138398
  C        25.2485572064       17.8650599837       11.0301770793
  C        24.9710521527       18.8913372183       11.9458294863
  C        23.7542623758       18.9173483548       12.6209252547
  C        22.7857288069       17.9179605970       12.4025729378
  C        23.0566570276       16.9151313293       11.4541341122
  C        24.2746241942       16.8866680901       10.7775228010
  C        21.5230319885       17.9046248737       13.1774003858
  C        21.5492962188       17.9106268169       14.5987787189
  C        22.7699732633       17.8127364182       15.3395427614
  C        14.0454167327       17.8279867716       10.2896650894
  C        15.3482207388       17.8828996198       11.0172428948
  C        15.6057569033       18.8878227856       11.9627137407
  C        16.8139789952       18.9076285259       12.6566864378
  C        17.7984570532       17.9252293380       12.4273405588
  C        17.5451836639       16.9436551125       11.4506599858
  C        16.3365530455       16.9194593840       10.7579724418
  C        19.0677125298       17.9101522910       13.1953534451
  C        19.0678977468       17.9156290509       14.6176283665
  C        17.8614701431       17.8174593421       15.3797962875
  C        46.8027810041       17.2163964361       10.1568970179
  C        45.5094668502       17.1470727238       10.8976861784
  C        45.3039856046       16.1636442014       11.8778394700
  C        44.1201957514       16.1370888516       12.6105432975
  C        43.1111068152       17.0938397684       12.3857401081
  C        43.3131643793       18.0560171911       11.3777039274
  C        44.4978871138       18.0864991505       10.6457954330
  C        41.8580564990       17.0992691265       13.1759689927
  C        41.8670538913       17.1038149341       14.5982475576
  C        43.0774992597       17.2022895975       15.3542155618
  C        20.3152317666       17.9339165848       15.3247463820
  C        20.2910301832       17.8849108804       12.5118043780
  C        46.7853415398       17.2321041447        5.8867959786
  C        45.4838338178       17.1271251559        5.1670051958
  C        45.2671699839       16.1278841711        4.2059240326
  C        44.0801567196       16.0993172394        3.4777949619
  C        43.0797754601       17.0671299741        3.6931808292
  C        43.2875655623       18.0373502662        4.6914828296
  C        44.4755728256       18.0720902323        5.4149461349
  C        41.8322328188       17.0858796195        2.8974217625
  C        41.8540519490       17.0961015645        1.4761160068
  C        43.0713412013       17.1957029633        0.7312769661
  C        46.1533128247       26.6372029314        0.7262942485
  C        46.1624177586       26.6560814645        3.5359335265
  C        14.0455820687       17.8323763602        5.7093971504
  C        15.3669382700       17.9087456817        5.0201493614
  C        15.6397970265       18.9261451996        4.0935832560
  C        16.8689822881       18.9655856860        3.4394086120
  C        17.8527880141       17.9868474010        3.6859917403
  C        17.5868957467       16.9985398679        4.6511029185
  C        16.3596894223       16.9586055705        5.3089012717
  C        19.1197053145       17.9647061710        2.9166406733
  C        19.0949245528       17.9422837614        1.4952523061
  C        17.8746783367       17.8292063025        0.7558367130
  C        28.8111487551       14.0912647859       10.3905429242
  C        28.1989819249       12.9171018026       11.0779159628
  C        28.9290023896       12.1661595950       12.0111706233
  C        28.3318499307       11.0902267944       12.6633939505
  C        26.9908439261       10.7407254424       12.4054842846
  C        26.2822547200       11.4717630384       11.4352551045
  C        26.8770934947       12.5481977338       10.7819035965
  C        26.3246796830        9.6589774214       13.1669465938
  C        26.3191719055        9.6818640189       14.5880331057
  C        26.8309662946       10.7908895969       15.3338350341
  C        32.1785141129       21.2347729932       10.1513765146
  C        32.7678799760       22.4028956227       10.8710973931
  C        32.0162532313       23.0781184142       11.8452831212
  C        32.5809766092       24.1226414385       12.5709899155
  C        33.9138267354       24.5189050914       12.3466554052
  C        34.6478743507       23.8615113603       11.3410010154
  C        34.0850900168       22.8131108347       10.6153411241
  C        34.5383045482       25.5957118455       13.1495568946
  C        34.5174341769       25.5702134234       14.5717159932
  C        33.9982145955       24.4585536687       15.3081330025
  C        25.7083672797        8.6048093159       15.3071635625
  C        25.6836644690        8.6108811892       12.4937611284
  C        32.0815263305       21.2049712854        5.8814463388
  C        32.6508888789       22.3679693942        5.1373669929
  C        31.9085252286       23.0279850307        4.1457075716
  C        32.4791539457       24.0665238763        3.4115135646
  C        33.8053337835       24.4776354562        3.6525342679
  C        34.5286890412       23.8322324403        4.6739528352
  C        33.9639447438       22.7884109527        5.4015126643
  C        34.4434943637       25.5638890117        2.8717420564
  C        34.4666154370       25.5553108932        1.4496152012
  C        33.9720478705       24.4523201472        0.6847682256
  C        40.6150048419       17.0939336745        0.7552836208
  C        40.6027432444       17.1116380120        3.5651860020
  C        28.7507007089       14.0674490091        5.8135972512
  C        28.1470238335       12.9170784768        5.0774642634
  C        28.8890581912       12.2130928460        4.1165452187
  C        28.3113341246       11.1544690160        3.4194024981
  C        26.9761680062       10.7721493512        3.6592128372
  C        26.2516250651       11.4623696389        4.6490037707
  C        26.8272497075       12.5220082034        5.3470894590
  C        26.3358690853        9.6804400205        2.8865478260
  C        26.3266674611        9.6928965158        1.4647200071
  C        26.8326786878       10.7974822292        0.7099049109
  C        18.1354109143        3.1809005336       10.3171281998
  C        17.4060724751        4.2781509268       11.0157392537
  C        16.3903488411        3.9997680330       11.9432427164
  C        15.7425935158        5.0397344845       12.6067411514
  C        16.0945017671        6.3834602694       12.3670806949
  C        17.0838976114        6.6530089143       11.4033357196
  C        17.7330138152        5.6156778332       10.7382795878
  C        15.4701580243        7.4911524434       13.1301385321
  C        15.4854087388        7.4904734219       14.5518567485
  C        16.1869212794        6.4968420150       15.3050454752
  C        42.9457699814       31.8594973015       10.0728404663
  C        43.6460990807       30.7717974831       10.8168175097
  C        44.5916234561       31.0931266329       11.8028915741
  C        45.1973001617       30.0875865427       12.5505895641
  C        44.8708717495       28.7345227691       12.3357418701
  C        43.9450631025       28.4201777444       11.3225137160
  C        43.3362680858       29.4253124183       10.5744387692
  C        45.4884810597       27.6552259656       13.1389251968
  C        45.4927102797       27.6808595756       14.5606222042
  C        44.8055877245       28.6888724206       15.3072601527
  C        14.8564203815        8.5629587906       15.2642179198
  C        14.8748960339        8.5629380804       12.4515534241
  C        42.9464217226       31.9615875114        5.8090237585
  C        43.6916603984       30.8854321281        5.0955613840
  C        44.6563108294       31.1913317941        4.1233132139
  C        45.2778432012       30.1717552290        3.4055752632
  C        44.9540311431       28.8214423828        3.6431850022
  C        44.0204561546       28.5237607701        4.6538725032
  C        43.3921918144       29.5405330806        5.3660496330
  C        45.5630478730       27.7240470595        2.8578957487
  C        45.5333083294       27.7173343964        1.4365961411
  C        44.8269163493       28.7075233230        0.6836542811
  C        35.0830904942       26.6447385703        0.7484859677
  C        35.0566893229       26.6192765707        3.5590793362
  C        18.1486282748        3.2469426114        5.7066387250
  C        17.4299782015        4.3437897087        4.9973998148
  C        16.4147306968        4.0525060766        4.0738749955
  C        15.7663806524        5.0831069664        3.3984742892
  C        16.1210577610        6.4283442392        3.6211656996
  C        17.1124965193        6.7117685501        4.5783487383
  C        17.7601950632        5.6828649280        5.2581148360
  C        15.4905270184        7.5240094802        2.8486877920
  C        15.4963951919        7.5073842908        1.4275495222
  C        16.1931479576        6.5056687080        0.6808603303
  H        10.6723211073       12.4657464026        3.9045911860
  H        11.6945254518       10.5509234366        2.6627321271
  H        15.3915695043       11.1685199352        4.7722422029
  H        14.3511671595       13.0713352053        6.0174256322
  H        13.3760884148       11.6310824012        1.2013195253
  H        50.3227907724       22.7483342070        3.9867974371
  H        49.3196556353       24.6227806942        2.6807930943
  H        45.6423162363       24.1613501494        4.8639301004
  H        46.6632085211       22.2904290678        6.1722074033
  H        47.6299694738       23.5759280027        1.2461796925
  H        14.8720465620        8.5882083437        4.6085786787
  H        50.2870044986       22.7026362576       12.0603430931
  H        49.2690481522       24.5754972188       13.3603761999
  H        45.6104986697       24.1093410019       11.1458992706
  H        46.6525957694       22.2540348084        9.8316160048
  H        47.6078965777       23.5518927513       14.7968596764
  H        40.6354994076       17.0706459027       11.4126452731
  H        48.6871048666       14.0949896856        7.8000348142
  H        10.6813354068       12.4667157421       12.0934069434
  H        11.6895703475       10.5247736908       13.2970888269
  H        15.3934138992       11.1587274885       11.2054281676
  H        14.3649402728       13.0871361227        9.9901382202
  H        13.3757857561       11.6220707259       14.7531214334
  H        47.9301954617       14.2184342231        9.7108691496
  H        47.7799708306       14.3735277778        6.4953401101
  H        49.0830234033       18.5521164749       10.8671176327
  H        10.4159930740       14.1343505003        7.9987496343
  H        24.4853632509        3.0237049609        3.9195287729
  H        25.6321859674        4.8793844270        2.6940744631
  H        23.2634663809        7.7529098380        4.8458965233
  H        22.1345723359        5.8874115940        6.0727737987
  H        23.8217627049        5.7885267310        1.2675618156
  H        36.3603084797       32.1926599934        3.9830133565
  H        35.2135384323       30.3754703649        2.7150549878
  H        37.4728192681       27.4385033759        4.8993366727
  H        38.5992331390       29.2688428583        6.1775282537
  H        36.9809430924       29.4583172594        1.2952065628
  H        25.7550692640        8.6033290488        4.6520989420
  H        36.4513044341       32.2452522220       12.1104398461
  H        35.3334411570       30.4345154614       13.4080799541
  H        37.5300726593       27.4879801703       11.1716303609
  H        38.6222439859       29.3105950763        9.8605951851
  H        37.0142730936       29.4772296358       14.8481631559
  H        46.1091297714       26.5875549774       11.3855934713
  H        44.6682653881       35.1161320295        7.8139452851
  H        24.4357973626        3.0375481506       12.0868009121
  H        25.5697765720        4.8749052311       13.3380236572
  H        23.1717911982        7.7673719974       11.2452171277
  H        22.0495472057        5.9179635791        9.9937380186
  H        23.7965423875        5.7908817630       14.8190802485
  H        44.9537768263       34.3903790822        9.6951796544
  H        44.9017615266       34.2067655018        6.4906615074
  H        40.6658873842       33.2089427160       10.8531120818
  H        23.1505365378        1.9576142872        8.0054469227
  H        25.8016850610       19.6843674064        3.9423361598
  H        23.6344560241       19.7321720085        2.7098962990
  H        22.3620639000       16.2092303183        4.8237053001
  H        24.5372011273       16.1723693728        6.0518949608
  H        23.7261193906       17.7172384747        1.2444301104
  H        35.1341700264       15.4625639677        3.9735202969
  H        37.2576620331       15.4116078396        2.6615714171
  H        38.7067714154       18.7873948229        4.9003802533
  H        36.5819726276       18.8133442125        6.2198384753
  H        37.2244831894       17.3759060777        1.2441292484
  H        20.3597728682       17.9830469031        4.6709069250
  H        35.1597080832       15.4334298799       12.0914704971
  H        37.2982421704       15.3641561082       13.3768460154
  H        38.7245807897       18.7704803030       11.1709312166
  H        36.5823593289       18.8206964311        9.8824223005
  H        37.2347513583       17.3604791617       14.7923788113
  H        35.1447289632       26.6865451660       11.4055193676
  H        28.5088887322       21.0917583492        7.9712714227
  H        25.7193134912       19.6630151584       12.1108404009
  H        23.5391113621       19.7162964959       13.3272106957
  H        22.3163169114       16.1368153663       11.2808215189
  H        24.5004163329       16.1018534698       10.0594504172
  H        23.7027619799       17.6970740032       14.7954872896
  H        28.9940770564       21.7213465329        9.7737253652
  H        29.1444231859       21.7490788786        6.6093541096
  H        32.0802538016       18.5238393474       11.0037497532
  H        27.4066917461       19.0850729070        8.0938442759
  H        14.8488648189       19.6490977073       12.1379137510
  H        17.0107207123       19.6934474904       13.3828434623
  H        18.2948091339       16.1771060050       11.2651373066
  H        16.1293167529       16.1489115065       10.0192172011
  H        16.9188994789       17.6985122361       14.8533950912
  H        46.0894388097       15.4337887542       12.0593690812
  H        43.9629106101       15.3671988909       13.3627914423
  H        42.5424274834       18.8029044441       11.1988683889
  H        44.6694951737       18.8442796932        9.8848367162
  H        44.0180760836       17.3142939846       14.8225171533
  H        20.2840762745       17.9043749616       11.4234547483
  H        46.0444254224       15.3873495420        4.0315075828
  H        43.9151381074       15.3229654937        2.7338478464
  H        42.5206703543       18.7895450664        4.8642577073
  H        44.6563679945       18.8397903052        6.1633193150
  H        44.0073825181       17.3015765573        1.2720522613
  H        46.1992961813       26.6826312285        4.6233778563
  H        52.7411956234       21.0626511485        8.1946640053
  H        14.8786671761       19.6794765843        3.9027212732
  H        17.0798959601       19.7572776373        2.7236904498
  H        18.3379873360       16.2366046542        4.8491525795
  H        16.1388160810       16.1827161404        6.0378764880
  H        16.9420132906       17.7192862434        1.3009004592
  H        52.3225680930       21.6733681870        6.2943003674
  H        52.0135213318       21.7023411177        9.4956828106
  H        49.0676468047       18.6078359529        5.2039472937
  H        13.2474760832       19.0162536180        7.9776310515
  H        29.9629648312       12.4396267985       12.2095092792
  H        28.8993664467       10.5068555250       13.3852957077
  H        25.2460586327       11.2115983977       11.2290145686
  H        26.3278874015       13.1335131091       10.0485082475
  H        27.1967739207       11.6584121935       14.7930097134
  H        30.9938107619       22.7579496172       12.0306909282
  H        31.9917751202       24.6447002382       13.3216779086
  H        35.6795536913       24.1570967543       11.1614148361
  H        34.6580741893       22.2817112447        9.8589249244
  H        33.6432606490       23.5888402421       14.7625547011
  H        25.7089285802        8.5941613071       11.4055925371
  H        30.8840358389       22.7120533678        3.9597354326
  H        31.8960426928       24.5772737041        2.6482211822
  H        35.5550903359       24.1375087806        4.8667799836
  H        34.5296978896       22.2686630947        6.1710649238
  H        33.5972294348       23.5775704560        1.2087659328
  H        40.5984930492       17.0760563539        4.6529326789
  H        32.5093321065       14.1516116355        8.2448421512
  H        29.9207560257       12.5057051519        3.9349683395
  H        28.8944515893       10.6053578196        2.6832406068
  H        25.2186832148       11.1795188993        4.8412180222
  H        26.2642054960       13.0704663640        6.0985077908
  H        27.1988396305       11.6702187687        1.2427543513
  H        33.3010046078       14.2147242922        6.4520289495
  H        33.4067595152       14.4033449858        9.5978806435
  H        32.1369589931       18.5209466785        5.1812995721
  H        30.2341725152       14.1893479584        8.0757974353
  H        16.1182893661        2.9632561238       12.1296056521
  H        14.9531133900        4.8203175705       13.3223571047
  H        17.3663196656        7.6858907660       11.2102445396
  H        18.5150415736        5.8183527062       10.0104269925
  H        16.7534718745        5.7394936566       14.7715504634
  H        44.8279138892       32.1402075474       11.9770717389
  H        45.9371645815       30.3413419253       13.3065348217
  H        43.6823637482       27.3781100938       11.1523936716
  H        42.5996780130       29.1899746852        9.8097461166
  H        44.2301933998       29.4366212495       14.7689707736
  H        14.8511556528        8.5461736594       11.3633320097
  H        44.8999143546       32.2340068031        3.9319071856
  H        46.0247865905       30.4129791666        2.6523737150
  H        43.7634260385       27.4840398667        4.8453902220
  H        42.6456341212       29.3177380503        6.1244401105
  H        44.2683999060       29.4703922352        1.2182579636
  H        35.0122310102       26.6297203042        4.6465388009
  H        36.6051877216       35.1339940881        8.1806959902
  H        16.1436371851        3.0129214570        3.9042098696
  H        14.9740124298        4.8562236316        2.6884489346
  H        17.3960307476        7.7472388547        4.7551780488
  H        18.5431260869        5.8933453548        5.9828130289
  H        16.7645583783        5.7554162740        1.2193056526
  H        36.2786997123       34.4822878504        6.2732663397
  H        36.3808675100       34.2090582361        9.4996465906
  H        40.5790748925       33.2017591289        5.1541029439
  H        17.4709893359        1.9470264800        7.9741279413
  H        28.6603800388       18.8962188998       12.1907229483
  H        28.9335841071       18.7169673500        3.7715184384
  H        30.9334542505       15.6578406951        3.5647378503
  H        31.4427445488       15.6998573924       12.6028718824
  H        28.7288756205       17.5337113538       15.2288537003
  H        29.6008788358       15.2750078757       14.5484396443
  H        30.6949274465       20.2511461493        2.2989722861
  H        32.7915994385       17.6529821677        1.3952806053
  H        32.7581971692       18.3587129362       14.5712687970
  H        18.8535739737        0.8689848405       12.3352427820
  H        40.5280181939       35.2288429865        3.9520762231
  H        42.3235006824       34.4181827676        3.5907117634
  H        22.0876881368        0.6921471473       12.3513371001
  H        11.5968803652       18.7128235219       12.3824010796
  H        52.2650157476       18.4312535402        3.6773898353
  H        49.2555652885       16.4767729482        3.5842391109
  H        10.1498930251       15.7982970272       12.2929949219
  H        50.8502138389       17.6924180620        3.9542321633
  H        10.0459147440       17.3946493082       12.0519702487
  H        20.2149422671        0.0022351373       12.0419360015
  H        39.1836760415       36.1244287161        3.6864672908
 Ni        30.9762706031       17.9501767236        2.9950828189
 Ni        31.1143051117       16.5433726641       -0.0016115053
 Ni        31.1614048653       19.1108692059        0.1698032604
 Ni        29.9363050700       17.2817231193       13.1576129150
  O        10.6498870348       14.3650900491        5.4858222211
  O        12.6131479589       14.6575224216        6.5838775481
  O        49.1478017990       16.8459537196        7.9897877240
  O        50.3502555686       20.9358218960        5.6480607910
  O        48.3485338859       20.5932597014        6.6659160225
  O        11.0515435969       17.0539050896        6.5006806375
  O        50.3209161979       20.8816572337       10.4068311788
  O        48.3466716220       20.5867140898        9.3271141640
  O        49.5435904642       18.2484014029       10.0682263867
  O        12.3589475170       18.6246134114        7.9996948082
  O        48.6932380557       14.1486173660        6.7513016126
  O         8.2098916014       14.2104382767        9.3225302895
  O        10.7353501172       14.5067552828       10.6643207460
  O        12.5717911302       14.5828012624        9.3284783713
  O        22.8444905975        2.0425668899        5.4872675149
  O        21.6060299375        3.5925131908        6.5891990742
  O        42.0579334735       34.1371444317        7.9789776230
  O        37.9813637098       33.1368952317        5.5725166195
  O        39.2172393341       31.5751167200        6.6657996303
  O        20.3083740005        1.0394739855        6.5020997976
  O        38.0243207656       33.1850366221       10.4156305900
  O        39.2181331514       31.5827852503        9.3276538019
  O        40.6521461330       33.7691738249       10.0601663190
  O        18.2557087500        1.3758969262        7.9967705394
  O        44.6222107179       35.1005162815        6.7587576733
  O        24.2053675766        0.0000046215        9.3207786440
  O        22.7530428101        2.0576214739       10.5838102692
  O        21.6246398677        3.5962722418        9.3429978138
  O        27.4994102988       18.7521173095        5.4928537181
  O        26.7618438661       16.9379794483        6.6534773724
  O        30.6724243968       19.4035547883        8.0711215858
  O        33.5850574375       16.2773694232        5.6674040901
  O        34.2764579153       18.1682420182        6.7354149841
  O        29.5734324028       17.0599874167        6.5902385103
  O        33.5528256330       16.3394639182       10.4205336626
  O        34.3019364573       18.2378102389        9.4100371518
  O        31.6490562390       18.3161051767       10.1577406821
  O        30.3235972340       15.1565617544        8.0831522931
  O        28.5515908176       21.0347465269        6.9034696735
  O        28.5133489199       20.9566478861        9.4137931618
  O        27.4467541562       18.6804047129       10.6523984281
  O        26.6922974208       16.9280877142        9.4118561718
  O        13.1481047731       18.6929935820       10.5873676585
  O        13.9190547135       16.9161506709        9.4049772145
  O        50.5959767557       19.3501708496        8.0204147253
  O        47.6828607612       16.3270331652       10.4172467920
  O        46.9505979402       18.1756328528        9.3253386644
  O        11.0696333029       17.0156081550        9.4896241239
  O        47.6758665509       16.3358299410        5.6528714346
  O        46.9260264535       18.2357568725        6.6637684914
  O        49.5685105151       18.3176803286        5.9823010326
  O        10.3185977160       15.1001978010        7.9970946727
  O        52.6707761568       21.0279165758        9.2418174986
  O        12.1468351511       20.8912182109        6.6732630659
  O        13.1079403850       18.6137313539        5.3257060443
  O        13.9571666452       16.9870177029        6.6654074702
  O        29.9946960989       14.4425893731       10.7283383461
  O        28.0893402563       14.6536627972        9.4946523654
  O        32.1319174311       16.8568624403        8.0794099297
  O        30.9625085824       20.9428165558       10.4149572616
  O        32.9451225753       20.6025855041        9.3406254524
  O        29.5654296544       17.0730433649        9.5702337781
  O        30.8563381057       20.8924038055        5.6611630980
  O        32.8733121859       20.5856801857        6.6662925187
  O        31.6860428631       18.2522721482        6.0020417905
  O        28.2880122539       18.6774270517        8.0795958009
  O        32.4899745501       14.2139939456        9.3273016807
  O        32.4033835135       14.2160134084        6.8245270635
  O        29.9241481991       14.4443779213        5.4835531288
  O        28.0432685683       14.5858768433        6.7479898457
  O        17.8892501270        1.9665582412       10.6627949283
  O        18.9562446482        3.5270968965        9.4079653028
  O        39.1685847736       34.1385911592        7.9971751598
  O        43.2801824599       33.0588953379       10.3316963612
  O        42.0343610028       31.5064447789        9.2416111105
  O        20.3175600826        1.0366405471        9.4801513521
  O        43.2760813160       33.1825538676        5.5749013887
  O        42.0052259033       31.5841111053        6.5830131437
  O        40.5789236150       33.7748168263        5.9359541500
  O        22.3672716173        1.3845849295        7.9979359971
  O        36.6728018809       35.0996968372        9.2333365925
  O        16.4455956254        0.0642262454        6.6682633225
  O        17.9365362925        2.0433429801        5.3264281106
  O        18.9191073106        3.5931219748        6.6659563248
  O        29.8128491774       18.8229994951        4.1802718184
  O        29.6125731529       18.7571217679       12.0059635512
  O        31.2247844306       16.4187604574        4.0975169788
  O        31.2488905248       16.4864372031       12.0572537788
  O        31.9857148489       17.1374063447        1.5828350589
  O        30.3334133774       15.8978608981       14.4082296050
  O        31.8195081032       18.1669695085       14.7476688632
  O        30.4970403152       19.4163920506        1.8392779916
  O        28.7704198762       18.1722044284       14.4832850212
  O        39.4567362942       35.2437915221        4.0020524882
  O        19.1415382580        0.0045322824       11.9905273441
  O        41.9693509765       35.1723245164        4.0871039051
  O        21.6912678098       -0.0693443173       11.8958097937
  O        51.3651493905       18.6143211276        4.0054323485
  O        10.7510163411       18.7471567057       11.9049746428
  O        50.0798753795       16.4127985999        4.0917270715
  O         9.5241464216       16.4831570286       11.9912323986
 Zr         9.2970366599       16.0527402291        6.1824187288
 Zr        49.8365836106       16.0067821147        9.7464970132
 Zr        22.0731903898        0.0296898754        6.1889793572
 Zr        42.4608533972       35.1534180834        9.8008362284
 Zr        29.6039327018       19.0941585941        6.3107103191
 Zr        29.5863607451       19.1728969480        9.8529892736
 Zr        11.0379444766       19.0520897656        9.8277478631
 Zr        11.0440241691       19.1548493944        6.2510041638
 Zr        31.3352461774       16.1044998854        9.8702953470
 Zr        31.3874769188       16.0217685101        6.2700458463
 Zr        18.6010461516       -0.0016709522        9.7634808994
 Zr        18.5065362504       -0.0078614771        6.2136139879
 Zr        12.3021992376       16.3235639747        7.9902284927
 Zr        48.6163769324       18.8330760282        8.0103076693
 Zr        20.3153477674        2.4735097366        7.9905324968
 Zr        40.6429389427       32.6866988582        7.9781854312
 Zr        28.3449028340       16.3336097219        8.0782817533
 Zr        32.6382512942       18.8342245157        8.0534462055
  H        29.4074213325       18.8603096028       14.8536589682
  H        30.9103518905       20.3906178636       -0.4333406032
  H        30.3759746475       15.5883842484        0.8038132779
