     563
 i =      146, E =     -4694.9813814077
  C        11.8588983089       14.0535711068        5.7414833282
  C        12.4564478642       12.8907554476        5.0230839793
  C        11.7047699516       12.1719841656        4.0812500866
  C        12.2810816913       11.1098507362        3.3887288405
  C        13.6216102101       10.7397962472        3.6164782197
  C        14.3547475974       11.4431731977        4.5901494783
  C        13.7819145924       12.5080909413        5.2818336154
  C        14.2609993200        9.6490109311        2.8430480269
  C        14.2557081859        9.6564053193        1.4213071002
  C        13.7423190002       10.7582623584        0.6671708545
  C        49.1269706358       21.2329611965        5.8796424300
  C        48.5502834523       22.4009496924        5.1525113364
  C        49.3002668978       23.0681852022        4.1714244646
  C        48.7333603286       24.1073561592        3.4382262276
  C        47.4028962615       24.5091736870        3.6669975494
  C        46.6719985948       23.8603890880        4.6806125660
  C        47.2344266639       22.8154605833        5.4099489662
  C        46.7726151893       25.5869134728        2.8697765614
  C        46.7614318349       25.5573433564        1.4480056581
  C        47.2612774409       24.4422763023        0.7044102300
  C        14.8593552845        8.5698247384        0.7081161233
  C        14.8921306386        8.5972812860        3.5197666705
  C        49.1130785880       21.2034263658       10.1452917068
  C        48.5276534109       22.3648436102       10.8724230255
  C        49.2668833483       23.0257045321       11.8652445841
  C        48.6905551666       24.0603010894       12.5966716873
  C        47.3600904332       24.4569855646       12.3585385716
  C        46.6396561367       23.8119211103       11.3351247174
  C        47.2132178335       22.7759675148       10.6033829069
  C        46.7216280312       25.5319616068       13.1496193079
  C        46.7334080834       25.5282690314       14.5713388854
  C        47.2488965482       24.4290261480       15.3276470727
  C        40.6180710221       17.0972061925       15.3170689453
  C        40.6330682252       17.1144439653       12.5067909514
  C        11.8828474388       14.0863559722       10.2852607448
  C        12.4715121966       12.9098749924       10.9889460425
  C        11.7138134559       12.1773317611       11.9154745730
  C        12.2797285233       11.0944248575       12.5837428125
  C        13.6181383418       10.7194551898       12.3514394741
  C        14.3561714165       11.4341630260       11.3899928066
  C        13.7914041822       12.5158063292       10.7174535456
  C        14.2513431803        9.6225235143       13.1220406688
  C        14.2506359274        9.6430105168       14.5439243507
  C        13.7412236781       10.7522461944       15.2908934874
  C        22.5141059955        3.2460780638        5.7527835917
  C        23.2318194009        4.3512552009        5.0549103432
  C        24.2348064690        4.0711808572        4.1147080279
  C        24.8653381235        5.1099938788        3.4342140838
  C        24.5089536271        6.4525969253        3.6720386715
  C        23.5340479020        6.7241768549        4.6496688358
  C        22.8995033907        5.6872626220        5.3293343416
  C        25.1162984227        7.5589954353        2.8956334841
  C        25.0965345627        7.5474904982        1.4734868947
  C        24.4024549651        6.5429354231        0.7270300946
  C        38.2976878477       31.9261440489        5.8500441939
  C        37.5555441676       30.8368906721        5.1462551856
  C        36.5860942451       31.1448654834        4.1788165361
  C        35.9522041040       30.1286493235        3.4679808496
  C        36.2711262343       28.7757536489        3.6993544008
  C        37.2114657633       28.4750868964        4.7033907743
  C        37.8489765389       29.4905088604        5.4142135453
  C        35.6543012507       27.6895656182        2.8996863657
  C        35.6872563075       27.7081868806        1.4770577574
  C        36.4008589563       28.7084420330        0.7441001607
  C        25.7167095740        8.6190163648        0.7528176681
  C        25.7051621673        8.6392813448        3.5652586297
  C        38.3292510284       31.9613587486       10.1601704903
  C        37.6069962491       30.8898635348       10.9075154318
  C        36.6724531281       31.2030929317       11.9068248557
  C        36.0555910807       30.1888457653       12.6375083306
  C        36.3578466337       28.8339030457       12.3936763169
  C        37.2735916116       28.5305979374       11.3671376048
  C        37.8922546887       29.5415278192       10.6374276739
  C        35.7360284786       27.7380597804       13.1744797669
  C        35.7290516472       27.7331856958       14.5973008376
  C        36.4196682184       28.7211207911       15.3673053138
  C        46.1354361049       26.6208743058       15.2815740418
  C        46.0875977782       26.5803542181       12.4736625215
  C        22.4640904946        3.2561877372       10.2586139842
  C        23.1645959019        4.3624238966       10.9807130645
  C        24.1706674182        4.0721904740       11.9164798272
  C        24.8058230505        5.0988276109       12.6117389123
  C        24.4559906959        6.4468479142       12.3950069304
  C        23.4729191619        6.7302851120       11.4275617960
  C        22.8333072004        5.7039792250       10.7324615880
  C        25.0920832503        7.5430768654       13.1695430741
  C        25.0846725799        7.5384083073       14.5928840767
  C        24.3941823625        6.5400782443       15.3499840801
  C        26.6808489477       17.8798533355        5.7303496914
  C        25.3797346818       17.9696876047        5.0005604546
  C        25.1349513992       18.9590012748        4.0351481644
  C        23.9068706234       19.0096641373        3.3744748692
  C        22.8885928147       18.0727931244        3.6506352192
  C        23.1327870744       17.1075936781        4.6462635965
  C        24.3573151295       17.0542743240        5.3075461913
  C        21.6059746270       18.0644978238        2.8993629335
  C        21.5964361474       18.0258287661        1.4767696418
  C        22.7969437988       17.8865608068        0.7110303222
  C        34.4255405660       17.2196167355        5.9141625034
  C        35.7161812570       17.1535071621        5.1741624907
  C        35.9060162013       16.1979322677        4.1625572907
  C        37.0882917366       16.1774903543        3.4278115785
  C        38.1135618849       17.1097539259        3.6827657018
  C        37.9262283723       18.0429918025        4.7213933306
  C        36.7421741594       18.0701837361        5.4537658762
  C        39.3676856737       17.1150291111        2.8950196490
  C        39.3623571419       17.1255102635        1.4724576616
  C        38.1559921284       17.2518618062        0.7148024695
  C        20.3452055067       18.0323540092        0.7755183663
  C        20.3832677314       18.0625119169        3.5888981255
  C        34.4258065653       17.2077069666       10.2260461007
  C        35.7320565783       17.1251071877       10.9343120308
  C        35.9355034272       16.1682326482       11.9405327777
  C        37.1315392764       16.1438019945       12.6520080447
  C        38.1512484814       17.0780396327       12.3820497687
  C        37.9528787058       18.0068847209       11.3425957619
  C        36.7571450121       18.0347127182       10.6304824473
  C        39.4017179898       17.1020879705       13.1727372936
  C        39.3802571184       17.1213902468       14.5947144856
  C        38.1647628030       17.2491983437       15.3381198412
  C        35.0855352873       26.6578826232       15.2963418608
  C        35.1491811919       26.6678570627       12.4865788521
  C        26.5856121858       17.8009193964       10.3597141063
  C        25.2651777752       17.8659083503       11.0508896811
  C        24.9979955462       18.8886146423       11.9740191895
  C        23.7740938732       18.9335407775       12.6353062259
  C        22.7882875234       17.9534940503       12.4018481673
  C        23.0490276837       16.9570070576       11.4436081797
  C        24.2721315870       16.9124555621       10.7766123786
  C        21.5250179606       17.9490651933       13.1769091258
  C        21.5552027224       17.9653555170       14.5986055020
  C        22.7769902581       17.8572864287       15.3353963167
  C        14.0461256088       17.8288192846       10.2914076234
  C        15.3475030351       17.8889184908       11.0232363862
  C        15.6020251921       18.9048505350       11.9581500619
  C        16.8089402059       18.9357636354       12.6543728568
  C        17.7965395734       17.9531985589       12.4391368720
  C        17.5449899817       16.9580870177       11.4753134562
  C        16.3377513711       16.9234139421       10.7795677763
  C        19.0683848169       17.9532625542       13.2050934817
  C        19.0741500196       17.9777190313       14.6278913746
  C        17.8714783528       17.8903718613       15.3972946408
  C        46.8023425652       17.2174087155       10.1585959987
  C        45.5101932067       17.1503626220       10.9024874498
  C        45.3050136695       16.1684219686       11.8844166905
  C        44.1219982917       16.1429671459       12.6188182557
  C        43.1123718008       17.0995173789       12.3946326105
  C        43.3146869746       18.0609410531       11.3856588329
  C        44.4984563848       18.0901388427       10.6518722708
  C        41.8582616852       17.1052635597       13.1842160500
  C        41.8644626949       17.1066962181       14.6068554161
  C        43.0736297813       17.2000895906       15.3652836678
  C        20.3243657779       18.0028019761       15.3300375593
  C        20.2895920412       17.9231422213       12.5170028689
  C        46.7835033063       17.2313661575        5.8879058165
  C        45.4795944115       17.1248626692        5.1718542824
  C        45.2585039470       16.1224677214        4.2149626326
  C        44.0695948319       16.0932247251        3.4896539973
  C        43.0710298523       17.0635291297        3.7031289984
  C        43.2828258691       18.0363293313        4.6981541990
  C        44.4726618691       18.0716436177        5.4189287148
  C        41.8232372498       17.0834103058        2.9067889566
  C        41.8465240373       17.0938562505        1.4852268058
  C        43.0651929731       17.1911328223        0.7423550012
  C        46.1533400826       26.6372529592        0.7263508760
  C        46.1627897726       26.6560600677        3.5359951296
  C        14.0526286693       17.8403865000        5.7126063729
  C        15.3812066757       17.9390034826        5.0330708389
  C        15.6491674418       18.9719691350        4.1213765397
  C        16.8809423690       19.0352967369        3.4720922375
  C        17.8770151337       18.0652482514        3.7055903548
  C        17.6163827495       17.0617890996        4.6573648709
  C        16.3864291180       16.9984584678        5.3114484003
  C        19.1449686829       18.0619502204        2.9305830391
  C        19.1138495561       18.0319975624        1.5079855145
  C        17.8908496611       17.9141749865        0.7735152164
  C        28.7936611611       14.1134337466       10.4003550609
  C        28.2011547993       12.9298426864       11.0823014159
  C        28.9242379263       12.2048920300       12.0412617299
  C        28.3347530474       11.1220043769       12.6888446563
  C        27.0075448638       10.7405709281       12.4043702825
  C        26.3086323927       11.4443416023       11.4067008894
  C        26.8957005963       12.5260374582       10.7562110976
  C        26.3420988160        9.6584326486       13.1661519924
  C        26.3231799634        9.6891048648       14.5876103704
  C        26.8118619379       10.8093547236       15.3318256028
  C        32.1791106767       21.2437221733       10.1134080589
  C        32.7622477436       22.4142396849       10.8350080718
  C        32.0029143425       23.0930144971       11.8012135796
  C        32.5639266006       24.1325345094       12.5377420792
  C        33.9011037826       24.5241959566       12.3308609453
  C        34.6433264130       23.8640815936       11.3326185832
  C        34.0850534960       22.8186750721       10.5984265599
  C        34.5213004301       25.6008751651       13.1397162991
  C        34.4957213815       25.5761624789       14.5621985043
  C        33.9743501306       24.4647908128       15.2966908720
  C        25.7166331616        8.6096807995       15.3073210454
  C        25.7085936079        8.6047708241       12.4933185836
  C        32.0863456333       21.1603234633        5.8345316787
  C        32.6406376903       22.3330618010        5.0985687572
  C        31.9003140909       22.9922306083        4.1041529988
  C        32.4653530783       24.0458924557        3.3873241488
  C        33.7854491282       24.4706849613        3.6409797028
  C        34.5049259143       23.8269069526        4.6668880971
  C        33.9451195773       22.7720074273        5.3815553976
  C        34.4227915394       25.5615946116        2.8645641335
  C        34.4442885382       25.5566122313        1.4415476326
  C        33.9491618868       24.4558511297        0.6734942885
  C        40.6085103166       17.0949481422        0.7624067490
  C        40.5927840806       17.1111356498        3.5728868061
  C        28.7127711446       14.0955053178        5.8201528923
  C        28.1035277370       12.9497185102        5.0870995848
  C        28.8336726067       12.2855889499        4.0881913485
  C        28.2629471389       11.2237561933        3.3915748579
  C        26.9452695537       10.8013094805        3.6622136652
  C        26.2329404410       11.4563205793        4.6855309162
  C        26.8020688607       12.5172868566        5.3875663481
  C        26.3133951605        9.7053217084        2.8882203054
  C        26.3091554447        9.7138906658        1.4651669783
  C        26.8016045003       10.8229536274        0.7078509221
  C        18.1353297181        3.1794933381       10.3175306244
  C        17.4048197920        4.2763188650       11.0155866806
  C        16.3906514263        3.9974177711       11.9446573297
  C        15.7422363780        5.0371344358       12.6079326848
  C        16.0919746660        6.3811770550       12.3666823462
  C        17.0797679980        6.6511137579       11.4013932409
  C        17.7294445072        5.6140693315       10.7364367599
  C        15.4675443957        7.4889134411       13.1296609974
  C        15.4836070521        7.4889527693       14.5514109956
  C        16.1859275511        6.4959606913       15.3046966597
  C        42.9454678156       31.8596700795       10.0726823483
  C        43.6456692078       30.7721526125       10.8171016010
  C        44.5910885434       31.0934488575       11.8032900243
  C        45.1968549761       30.0878974284       12.5509339330
  C        44.8706735150       28.7347908049       12.3359328236
  C        43.9449798437       28.4204770854       11.3225683644
  C        43.3360949598       29.4256185110       10.5745861320
  C        45.4883758015       27.6554455216       13.1390204287
  C        45.4926598355       27.6810210720       14.5607275925
  C        44.8056473327       28.6890241897       15.3074823211
  C        14.8548773104        8.5617085835       15.2636422248
  C        14.8719871666        8.5605047515       12.4509517340
  C        42.9463355455       31.9616971710        5.8090819831
  C        43.6919139658       30.8854904578        5.0958702109
  C        44.6562237279       31.1914077942        4.1232917834
  C        45.2778187488       30.1718406724        3.4055739523
  C        44.9544206690       28.8214743010        3.6434578993
  C        44.0213173956       28.5238057319        4.6546062627
  C        43.3930095784       29.5405556889        5.3668011875
  C        45.5633533426       27.7240770191        2.8580767961
  C        45.5334576391       27.7173945092        1.4367632509
  C        44.8270547734       28.7076202439        0.6838775527
  C        35.0619474450       26.6468362335        0.7424916803
  C        35.0395243269       26.6148889130        3.5537473371
  C        18.1485669789        3.2469642495        5.7067547397
  C        17.4302256589        4.3439220013        4.9973501496
  C        16.4148700755        4.0526909681        4.0739067500
  C        15.7666431895        5.0832976365        3.3983960598
  C        16.1214811968        6.4285564320        3.6208130066
  C        17.1130667962        6.7119119326        4.5778765346
  C        17.7606736615        5.6830063083        5.2577767804
  C        15.4907715181        7.5241533908        2.8482990752
  C        15.4960641887        7.5070885366        1.4271441970
  C        16.1928164236        6.5053484402        0.6805058595
  H        10.6726683385       12.4661748483        3.9041742996
  H        11.6946980971       10.5515206201        2.6621495604
  H        15.3917411233       11.1684701801        4.7719536500
  H        14.3514802833       13.0711237186        6.0173411151
  H        13.3756094030       11.6306433485        1.2002712700
  H        50.3229141193       22.7480181614        3.9865606322
  H        49.3198377216       24.6225402155        2.6805864072
  H        45.6425697323       24.1612916092        4.8639136751
  H        46.6634537845       22.2902923159        6.1721242789
  H        47.6298432621       23.5758608242        1.2460177719
  H        14.8729089636        8.5888515182        4.6080842061
  H        50.2869634399       22.7029387026       12.0601182303
  H        49.2689932603       24.5758429619       13.3600840222
  H        45.6102045283       24.1090406040       11.1461290446
  H        46.6523315449       22.2536633138        9.8319599284
  H        47.6076296121       23.5519204950       14.7966938869
  H        40.6386294166       17.0767682776       11.4190877325
  H        48.6870362130       14.0949321410        7.7999928361
  H        10.6806586443       12.4672440499       12.0933365792
  H        11.6876937624       10.5246538102       13.2967384538
  H        15.3912441891       11.1553013239       11.2034990352
  H        14.3639282674       13.0844200502        9.9884669091
  H        13.3743030999       11.6207612880       14.7521644367
  H        47.9301901418       14.2181959884        9.7109306505
  H        47.7798941112       14.3731135920        6.4951351075
  H        49.0832472649       18.5519084531       10.8671643472
  H        10.4162172120       14.1343944982        7.9986471771
  H        24.4985243117        3.0326832434        3.9271337127
  H        25.6432878318        4.8909064737        2.7060220039
  H        23.2503710350        7.7570776007        4.8407079166
  H        22.1252642886        5.8894453990        6.0654675789
  H        23.8436427880        5.7841701884        1.2670209847
  H        36.3530185073       32.1893142942        3.9853102647
  H        35.2013884308       30.3752721173        2.7203862862
  H        37.4684938392       27.4347046798        4.8919242300
  H        38.5992035588       29.2621143105        6.1677468912
  H        36.9658147930       29.4555928357        1.2938180975
  H        25.7362955549        8.6245282267        4.6532491863
  H        36.4484738998       32.2483264229       12.1077629488
  H        35.3244238951       30.4397816665       13.4028367625
  H        37.5216823485       27.4893809426       11.1718597202
  H        38.6196231591       29.3100599729        9.8630201785
  H        36.9999952181       29.4777404861       14.8469801237
  H        46.1089778480       26.5878144767       11.3856247744
  H        44.6707229104       35.1163964653        7.8102904112
  H        24.4463797619        3.0329420700       12.0806662691
  H        25.5892964793        4.8649359645       13.3294431479
  H        23.1901963440        7.7659689599       11.2501837081
  H        22.0591059992        5.9220892746       10.0003770689
  H        23.8283223692        5.7798668418       14.8193239729
  H        44.9548981916       34.3900297866        9.6948482460
  H        44.9005568741       34.2060416765        6.4885600127
  H        40.6655116602       33.2098592613       10.8522452607
  H        23.1521184732        1.9582728199        8.0043191905
  H        25.9152441444       19.6842506828        3.8150214235
  H        23.7241617075       19.7847084600        2.6331791156
  H        22.3624589807       16.3725610517        4.8704529495
  H        24.5508345473       16.2947431563        6.0608859195
  H        23.7407676793       17.7667999146        1.2346817279
  H        35.1144306776       15.4817843594        3.9534906732
  H        37.2288982783       15.4294141826        2.6507151299
  H        38.7086011351       18.7714290035        4.9241082271
  H        36.5836336324       18.8072090490        6.2375978718
  H        37.2159587839       17.3819003916        1.2431773655
  H        20.3959694079       18.1074053383        4.6766263907
  H        35.1384356955       15.4637777067       12.1669130438
  H        37.2855220349       15.3982449220       13.4289344608
  H        38.7326898654       18.7346555942       11.1280364312
  H        36.5850987442       18.7709660701        9.8489669780
  H        37.2315125387       17.3776710613       14.7976181092
  H        35.1359377097       26.6919520057       11.3985427431
  H        28.5083732661       21.0862623448        8.0127544640
  H        25.7618161577       19.6413171968       12.1551651989
  H        23.5676631946       19.7308501332       13.3460075640
  H        22.2972270923       16.1929498694       11.2565612678
  H        24.4874854697       16.1303953059       10.0524175609
  H        23.7052134466       17.7152813948       14.7900647247
  H        29.0212932700       21.7075306141        9.7531219991
  H        29.0891831151       21.7838906018        6.6118507848
  H        32.0628281096       18.5541061777       11.0135922254
  H        27.3891199113       19.0730335311        8.0839084753
  H        14.8438717173       19.6672777766       12.1224910287
  H        17.0024324764       19.7318837723       13.3701386685
  H        18.2957012993       16.1899554385       11.3009503273
  H        16.1341481437       16.1431770191       10.0498806038
  H        16.9258630792       17.7691145621       14.8767947608
  H        46.0899606422       15.4379445205       12.0657323413
  H        43.9654927727       15.3730963466       13.3712597604
  H        42.5442907139       18.8082221860       11.2069470787
  H        44.6689306931       18.8472754642        9.8899946426
  H        44.0155409578       17.3105544485       14.8355692816
  H        20.2773675455       17.9318842023       11.4285303606
  H        46.0340743866       15.3800798682        4.0407909887
  H        43.9020290763       15.3145473772        2.7486812289
  H        42.5178386782       18.7906746974        4.8700652901
  H        44.6559843637       18.8417180570        6.1642531731
  H        44.0007087276       17.2935047006        1.2846578156
  H        46.1998461085       26.6826095412        4.6234333989
  H        52.7409392900       21.0626125956        8.1946508244
  H        14.8808089028       19.7194553626        3.9362846689
  H        17.0824263224       19.8395635894        2.7676225109
  H        18.3741620022       16.3046422335        4.8485291923
  H        16.1745452725       16.2092342428        6.0289726450
  H        16.9599216321       17.8111843891        1.3229130086
  H        52.3215817977       21.6728743842        6.2945598605
  H        52.0127770624       21.7016091156        9.4956931476
  H        49.0678423847       18.6070970526        5.2040242287
  H        13.2475520764       19.0170061577        7.9786894568
  H        29.9447188192       12.5042886923       12.2687856561
  H        28.8975768843       10.5610401975       13.4317204224
  H        25.2835019966       11.1603999394       11.1779671640
  H        26.3507858507       13.0904413137       10.0036296772
  H        27.1671716116       11.6823963666       14.7925240511
  H        30.9761007185       22.7796906771       11.9732291804
  H        31.9677872578       24.6548938967       13.2828042290
  H        35.6785818701       24.1545596825       11.1656588885
  H        34.6672553683       22.2848453690        9.8507873960
  H        33.6199345034       23.5962476606       14.7487790890
  H        25.7400847437        8.5839057639       11.4053544638
  H        30.8852037770       22.6618976574        3.8960703844
  H        31.8823443194       24.5552833563        2.6231344125
  H        35.5261509909       24.1410681304        4.8723536948
  H        34.5099019777       22.2566694349        6.1546971178
  H        33.5760452481       23.5792948795        1.1952766428
  H        40.5877527252       17.0752117538        4.6606547130
  H        32.5129319956       14.1559021541        8.2670219832
  H        29.8472799500       12.6177955740        3.8736855061
  H        28.8391366136       10.7048978058        2.6286828279
  H        25.2130887604       11.1450238421        4.9021113130
  H        26.2464763878       13.0362939182        6.1651382488
  H        27.1471844380       11.7071622856        1.2354631560
  H        33.2833798022       14.1594859562        6.4188608744
  H        33.4033226484       14.3834587110        9.6223213443
  H        32.1255234671       18.5766474728        5.1745151218
  H        30.1852407548       14.1647587478        8.0966896740
  H        16.1207121457        2.9606482882       12.1326483484
  H        14.9539833839        4.8172491079       13.3247535157
  H        17.3606837920        7.6841655263       11.2070223731
  H        18.5103424140        5.8172432873       10.0075172142
  H        16.7526588758        5.7387056051       14.7712687634
  H        44.8274264740       32.1405018219       11.9775582189
  H        45.9366858197       30.3417177405       13.3068920166
  H        43.6825534030       27.3783789384       11.1522154822
  H        42.5997441634       29.1902681847        9.8096707334
  H        44.2302974108       29.4368651519       14.7692778987
  H        14.8477540994        8.5432986279       11.3627473760
  H        44.8994995209       32.2341018534        3.9315663523
  H        46.0245235630       30.4131804730        2.6521697556
  H        43.7647472479       27.4840400115        4.8465041569
  H        42.6468437767       29.3177308913        6.1255697696
  H        44.2686726917       29.4705574516        1.2185201079
  H        34.9970886977       26.6225690522        4.6413688145
  H        36.6079961688       35.1344499114        8.1848183091
  H        16.1435967484        3.0131290045        3.9044072590
  H        14.9742125717        4.8564299125        2.6884377041
  H        17.3968821697        7.7473417967        4.7545007634
  H        18.5437392518        5.8935693745        5.9823066756
  H        16.7649059360        5.7556162252        1.2189577286
  H        36.2785481864       34.4831410946        6.2732321675
  H        36.3860260590       34.2072155764        9.4997880144
  H        40.5783341131       33.2024425701        5.1536952824
  H        17.4759944490        1.9454909493        7.9768030945
  H        29.3212805049       19.5671885158       12.5913845170
  H        32.2635093606       16.4006216334        3.8262165426
  H        31.3039153273       15.6234108276       12.6147751701
  H        28.2669932039       18.0072999858       14.6518310340
  H        33.4611870690       16.5139086467        0.1041997696
  H        18.9046944432        0.8519607911       12.3623816251
  H        40.5248192337       35.2294768043        3.9512485518
  H        42.3254690071       34.4200907524        3.5888152629
  H        22.0968256833        0.6988442057       12.3435066506
  H        11.5968782938       18.7129545058       12.3822002913
  H        52.2649251785       18.4307889869        3.6769771582
  H        49.2552638197       16.4762549407        3.5842671776
  H        10.1498581164       15.7981827530       12.2931447417
  H        50.8499863961       17.6923863778        3.9542306729
  H        10.0460135581       17.3945497307       12.0520229820
  H        20.2926643098        0.0044396195       12.0340379477
  H        39.1820490175       36.1253941890        3.6892065461
 Ni        30.4000684450       16.0338402002        2.4929093203
 Ni        31.4668872556       15.5144361653        0.5864745142
 Ni        30.1035799919       17.0713271804       -0.1656572230
 Ni        30.2251855511       17.5521728393       13.4867603633
  O        10.6500821636       14.3651539526        5.4858924344
  O        12.6133370978       14.6577346571        6.5838824579
  O        49.1478051530       16.8458868528        7.9896926196
  O        50.3503788766       20.9354902539        5.6479872945
  O        48.3486085848       20.5932032020        6.6659051740
  O        11.0518930916       17.0534805358        6.5009043651
  O        50.3208773623       20.8816733841       10.4067951327
  O        48.3466982161       20.5866863047        9.3270547927
  O        49.5437003684       18.2483394860       10.0681437857
  O        12.3594551112       18.6243114976        7.9995186561
  O        48.6932457471       14.1486806895        6.7512854296
  O         8.2099006616       14.2104931916        9.3225662367
  O        10.7353274188       14.5067772782       10.6642329295
  O        12.5718665916       14.5829752671        9.3284568636
  O        22.8450082337        2.0440600124        5.4867593186
  O        21.6065870493        3.5929995331        6.5889028685
  O        42.0592570029       34.1370593380        7.9767451177
  O        37.9813339729       33.1350868566        5.5718842138
  O        39.2165364186       31.5740587775        6.6648982635
  O        20.3092288650        1.0400752736        6.5019925646
  O        38.0252601494       33.1856418343       10.4167003274
  O        39.2176917453       31.5825533163        9.3281744686
  O        40.6542551427       33.7681243858       10.0578622843
  O        18.2602232969        1.3735224832        7.9982892769
  O        44.6227382057       35.1003397827        6.7567827328
  O        24.2068441815       -0.0001660128        9.3202782829
  O        22.7534444141        2.0567002289       10.5837408416
  O        21.6260116982        3.5971953137        9.3453432598
  O        27.6358455137       18.6901586949        5.4121529670
  O        26.7398630742       17.0046259823        6.6584122844
  O        30.6589616722       19.4053510344        8.0885964627
  O        33.5437915110       16.3325550642        5.6545472107
  O        34.2684330619       18.1807702368        6.7445534308
  O        29.5688742866       17.0645868250        6.5838085276
  O        33.5395251927       16.3274855873       10.4942391067
  O        34.2689702253       18.1774467618        9.4070790141
  O        31.6499056675       18.3133561724       10.1653184435
  O        30.2951322526       15.1296657863        8.0975814868
  O        28.5515991176       21.0328163552        6.9173211314
  O        28.5135736379       20.9506205091        9.4125453199
  O        27.4970415726       18.6116278614       10.7363834948
  O        26.6936517842       16.9320976327        9.4178724657
  O        13.1478804419       18.6934999808       10.5872328062
  O        13.9207554460       16.9167750135        9.4066096779
  O        50.5960094194       19.3500185168        8.0200176631
  O        47.6821234654       16.3272203721       10.4175015337
  O        46.9502458891       18.1756408095        9.3256156216
  O        11.0702333579       17.0150986886        9.4893491371
  O        47.6746417265       16.3359150963        5.6527274098
  O        46.9257002544       18.2359417511        6.6636132016
  O        49.5691033949       18.3176106356        5.9823883418
  O        10.3188557640       15.1002539135        7.9970934237
  O        52.6707087638       21.0278223802        9.2418078686
  O        12.1468352082       20.8911159403        6.6732169663
  O        13.1097875378       18.6141303686        5.3253871932
  O        13.9605553150       16.9884746725        6.6627709261
  O        29.9637921273       14.5045333524       10.7448317248
  O        28.0796004057       14.6571252860        9.4905423049
  O        32.0691462710       16.8597982122        8.0873445917
  O        30.9589978466       20.9580427029       10.3419777884
  O        32.9566437509       20.5899165957        9.3302873796
  O        29.5666383347       17.0819145362        9.5775912629
  O        30.8689492495       20.8018151012        5.5727552776
  O        32.8605019636       20.5805990972        6.6616052363
  O        31.6010969342       18.2498585715        5.9218163719
  O        28.2769260568       18.6785748561        8.0957102679
  O        32.4867421815       14.2181211536        9.3369834848
  O        32.4045273357       14.2138263084        6.8288106624
  O        29.8976910093       14.4412852711        5.4972413438
  O        28.0028014259       14.6487921846        6.7391950528
  O        17.8898568067        1.9651717964       10.6633875800
  O        18.9562661708        3.5265466122        9.4083871292
  O        39.1691803252       34.1388912484        7.9993750488
  O        43.2803625548       33.0592609023       10.3313665093
  O        42.0343470291       31.5066091809        9.2414406095
  O        20.3217023319        1.0375489344        9.4788145544
  O        43.2760376740       33.1826036518        5.5747780712
  O        42.0050653763       31.5842257740        6.5829617988
  O        40.5787887558       33.7750743714        5.9358487983
  O        22.3687589967        1.3852943522        7.9972413835
  O        36.6742761030       35.0996747275        9.2358210120
  O        16.4462510597        0.0646145410        6.6680094155
  O        17.9365578148        2.0433997152        5.3266345297
  O        18.9191400656        3.5931295685        6.6661444282
  O        29.8993257896       18.9822029049       12.0702588573
  O        31.3551897642       16.1894908900        4.1079721887
  O        31.2513456166       16.4838322747       12.1616338613
  O        33.1968540284       15.6036416199        0.3273076516
  O        29.1763000263       18.3256463437       14.8144583058
  O        39.4555665169       35.2439169622        4.0021860783
  O        19.2010524577        0.0037626569       11.9878416538
  O        41.9698935122       35.1725732697        4.0866763279
  O        21.7008090810       -0.0690206717       11.8979731717
  O        51.3652746086       18.6141894100        4.0054436800
  O        10.7509827942       18.7471650097       11.9048203582
  O        50.0795717104       16.4128283992        4.0918489655
  O         9.5242836107       16.4831130751       11.9911977016
 Zr         9.2968065506       16.0526020687        6.1824454881
 Zr        49.8363746964       16.0066012392        9.7465199429
 Zr        22.0728702149        0.0315158998        6.1858282797
 Zr        42.4639574516       35.1525264363        9.7916354365
 Zr        29.6197969825       19.1074159757        6.4156438621
 Zr        29.5716324024       19.1545690274        9.9569868317
 Zr        11.0377793399       19.0515466080        9.8274536241
 Zr        11.0443839405       19.1542685779        6.2508048100
 Zr        31.3232482701       16.1034180662        9.9479004349
 Zr        31.3647432728       15.9744964888        6.2803266547
 Zr        18.6077288986        0.0008296245        9.7753691901
 Zr        18.5066967970       -0.0082949830        6.2169943449
 Zr        12.3033629253       16.3235708070        7.9896413980
 Zr        48.6159026890       18.8327428273        8.0102588048
 Zr        20.3161163102        2.4753478552        7.9903912668
 Zr        40.6413071364       32.6876960688        7.9775907520
 Zr        28.3328395260       16.3387086822        8.0867547563
 Zr        32.6344145924       18.8016932746        8.0783718458
  H        29.7520057098       15.8036554947        1.0274309721
