     569
 i =      189, E =     -4729.5278076801
  C        11.8587719781       14.0534593963        5.7415793747
  C        12.4562648021       12.8905644078        5.0232987380
  C        11.7046000730       12.1715892170        4.0816334457
  C        12.2810163296       11.1093968683        3.3893056949
  C        13.6216090431       10.7396201236        3.6170414666
  C        14.3547355924       11.4432347389        4.5905164391
  C        13.7818194436       12.5082048458        5.2820117826
  C        14.2611498305        9.6489481550        2.8436475082
  C        14.2563517902        9.6568262409        1.4219455492
  C        13.7432004074       10.7589597674        0.6680429313
  C        49.1268476049       21.2331573554        5.8797249832
  C        48.5501401624       22.4011057358        5.1526847291
  C        49.3001071212       23.0682620334        4.1715143516
  C        48.7331979317       24.1074129057        3.4383136140
  C        47.4027350240       24.5092747039        3.6670705679
  C        46.6718867019       23.8606128722        4.6808165205
  C        47.2343119657       22.8157094637        5.4101843746
  C        46.7724770456       25.5869508621        2.8697812367
  C        46.7615345082       25.5573693741        1.4480123548
  C        47.2615751653       24.4423551106        0.7044683580
  C        14.8602442166        8.5704672743        0.7086676626
  C        14.8920010824        8.5970277026        3.5202875120
  C        49.1132565900       21.2034907467       10.1453856641
  C        48.5279945376       22.3649539702       10.8723675846
  C        49.2671635057       23.0254576448       11.8654872401
  C        48.6908931601       24.0600524489       12.5969285273
  C        47.3605842461       24.4571086372       12.3585169989
  C        46.6403030116       23.8124928746       11.3346998895
  C        47.2137809023       22.7765466472       10.6029201696
  C        46.7220958826       25.5319944792       13.1496174664
  C        46.7338148090       25.5282817517       14.5713283358
  C        47.2493423182       24.4291056158       15.3277043295
  C        40.6137652936       17.0726127024       15.3048614850
  C        40.6124337533       17.0790154405       12.4939727313
  C        11.8829780238       14.0865044815       10.2855442050
  C        12.4722409023       12.9107094668       10.9897334361
  C        11.7147744231       12.1775813157       11.9159612139
  C        12.2813538867       11.0951124639       12.5843500693
  C        13.6201450173       10.7212801512       12.3524512578
  C        14.3580658283       11.4367953637       11.3915610878
  C        13.7926610880       12.5179879229       10.7188882452
  C        14.2537250964        9.6245031009       13.1228561469
  C        14.2524323673        9.6444599325       14.5446974940
  C        13.7426239047       10.7534266727       15.2917888815
  C        22.5128017745        3.2438982621        5.7524575843
  C        23.2306982400        4.3462079377        5.0510994462
  C        24.2264867201        4.0598280337        4.1053575758
  C        24.8594728936        5.0947485955        3.4218233334
  C        24.5125620047        6.4388500912        3.6634620100
  C        23.5441326237        6.7166710064        4.6456009437
  C        22.9066342923        5.6834673076        5.3278304093
  C        25.1258362212        7.5420643087        2.8885683865
  C        25.1039070495        7.5353929811        1.4666348292
  C        24.4035844419        6.5376717926        0.7167563024
  C        38.2979718546       31.9274812434        5.8515942837
  C        37.5568178737       30.8388346701        5.1498521636
  C        36.5929615590       31.1458014301        4.1767889040
  C        35.9630551758       30.1280345961        3.4654528746
  C        36.2811755649       28.7764083551        3.7036035807
  C        37.2140917460       28.4769761271        4.7146045583
  C        37.8481442880       29.4936928575        5.4252881775
  C        35.6719965419       27.6878134960        2.9040414104
  C        35.7153286668       27.7011273452        1.4823053019
  C        36.4288730527       28.7016100459        0.7495722565
  C        25.7296390028        8.6058266197        0.7497174716
  C        25.7240344891        8.6147551238        3.5620141608
  C        38.3305959803       31.9605981714       10.1602747525
  C        37.6149915355       30.8868945184       10.9092480242
  C        36.6826306662       31.1948001320       11.9121214009
  C        36.0745769012       30.1766533268       12.6446172195
  C        36.3838039975       28.8235401656       12.3990340983
  C        37.2967779583       28.5256231370       11.3685357428
  C        37.9065583308       29.5402123369       10.6370314192
  C        35.7711853938       27.7239449593       13.1809338346
  C        35.7656936416       27.7197707663       14.6036113332
  C        36.4513102403       28.7116950730       15.3729114451
  C        46.1356777162       26.6208261867       15.2815043973
  C        46.0880191981       26.5803176511       12.4736057253
  C        22.4657599276        3.2568854136       10.2575736663
  C        23.1703913180        4.3637046472       10.9763555117
  C        24.1781056415        4.0731382828       11.9102478789
  C        24.8163204911        5.0996596003       12.6031032440
  C        24.4681488497        6.4481228688       12.3861973443
  C        23.4838582518        6.7319781596       11.4201937446
  C        22.8412090195        5.7056547712       10.7273835525
  C        25.1052519163        7.5429442808       13.1628460092
  C        25.0939380836        7.5354351833       14.5862227445
  C        24.3971356959        6.5385504802       15.3396825412
  C        26.6124317559       17.8604226034        5.7766188855
  C        25.3063981309       17.9143864748        5.0560012970
  C        25.0451877799       18.9162191308        4.1075978654
  C        23.8326634966       18.9367476745        3.4212222597
  C        22.8448494893       17.9604146265        3.6625694427
  C        23.1013872369       16.9827990435        4.6425865820
  C        24.3159977393       16.9555541588        5.3255605972
  C        21.5730405862       17.9455096228        2.8965392231
  C        21.5750361490       17.9256217998        1.4739477870
  C        22.7817207846       17.8059535933        0.7145468739
  C        34.4425894829       17.1937388931        5.9241902485
  C        35.7374750057       17.1449303735        5.1815187340
  C        35.9557425951       16.1570013899        4.2082607503
  C        37.1348546125       16.1434018985        3.4685709672
  C        38.1308812182       17.1160108159        3.6820220407
  C        37.9173201744       18.0844901028        4.6813609428
  C        36.7343205174       18.1036967589        5.4179699136
  C        39.3824637989       17.1209113200        2.8890345702
  C        39.3699716880       17.1123194092        1.4670426345
  C        38.1573571511       17.2162608062        0.7158817199
  C        20.3288835151       17.9405721358        0.7645577325
  C        20.3480281536       17.9447228427        3.5781447330
  C        34.3792969099       17.2127488723       10.2632063449
  C        35.6888367909       17.1104571905       10.9695315146
  C        35.9166445359       16.1224501584       11.9398189878
  C        37.1212693271       16.0884477605       12.6380913052
  C        38.1275562751       17.0425165871       12.3884132061
  C        37.9070243078       18.0012805835       11.3818884944
  C        36.7035009413       18.0382581575       10.6840060829
  C        39.3855793775       17.0617277680       13.1683591790
  C        39.3716026731       17.0824297836       14.5898760458
  C        38.1583203805       17.2009373231       15.3391879693
  C        35.1276845701       26.6419023908       15.3036573863
  C        35.1887712929       26.6508419564       12.4938468812
  C        26.5708621196       17.8287757984       10.3199458702
  C        25.2548952762       17.8741912488       11.0250785486
  C        24.9860458968       18.8884505472       11.9566171179
  C        23.7695847487       18.9144272523       12.6330600828
  C        22.7918505240       17.9267073532       12.3997998161
  C        23.0540114814       16.9379394981       11.4344168996
  C        24.2718704491       16.9094540189       10.7572077271
  C        21.5284092719       17.9101111221       13.1736392037
  C        21.5517951387       17.9060773223       14.5952123987
  C        22.7702498027       17.7965370242       15.3379783159
  C        14.0466597333       17.8292714001       10.2882440708
  C        15.3512295240       17.8870695528       11.0124828013
  C        15.6079799082       18.8908687756       11.9594186973
  C        16.8171665905       18.9121157137       12.6517257602
  C        17.8036866974       17.9324816727       12.4191380384
  C        17.5518630153       16.9532015891       11.4397333946
  C        16.3420996510       16.9273183993       10.7490087967
  C        19.0724167701       17.9161235351       13.1882425481
  C        19.0703355957       17.9154084839       14.6106409908
  C        17.8629941928       17.8151119383       15.3711988328
  C        46.7993159341       17.2144056089       10.1547672205
  C        45.5010383164       17.1388265229       10.8894243347
  C        45.2944375707       16.1534792628       11.8676625006
  C        44.1078950652       16.1213544539       12.5963462260
  C        43.0948453576       17.0740947811       12.3705753963
  C        43.2969825453       18.0367235515       11.3626533165
  C        44.4849004360       18.0729432795       10.6349011712
  C        41.8421305163       17.0766694702       13.1640254931
  C        41.8559096515       17.0858051434       14.5869235421
  C        43.0687198771       17.1923482642       15.3382925213
  C        20.3166503609       17.9299538321       15.3195502850
  C        20.2968284391       17.8955720590       12.5065175828
  C        46.7866704582       17.2341459689        5.8844677571
  C        45.4877497309       17.1344819142        5.1591948052
  C        45.2716509599       16.1379910741        4.1951858343
  C        44.0860895989       16.1130018215        3.4646008960
  C        43.0866743009       17.0818588719        3.6802954343
  C        43.2950337210       18.0509655350        4.6795905519
  C        44.4814182390       18.0818816072        5.4057281994
  C        41.8373003524       17.0982855239        2.8876820727
  C        41.8537142846       17.0960999684        1.4661611186
  C        43.0676934859       17.1942107965        0.7154658730
  C        46.1534309755       26.6372082186        0.7262699520
  C        46.1624367383       26.6560338994        3.5359180527
  C        14.0450661595       17.8316779184        5.7084704352
  C        15.3651105739       17.9064404140        5.0168298908
  C        15.6362130337       18.9218323888        4.0875233333
  C        16.8643870162       18.9603864051        3.4314381299
  C        17.8490277364       17.9827913716        3.6790505951
  C        17.5846700623       16.9962015514        4.6464055795
  C        16.3584331415       16.9570522080        5.3059610912
  C        19.1162121094       17.9604670576        2.9102411147
  C        19.0932650838       17.9370970994        1.4887478193
  C        17.8741606325       17.8247231436        0.7474192509
  C        28.7979160054       14.1219090608       10.4008571180
  C        28.2079026222       12.9400328801       11.0916249176
  C        28.9314349528       12.2228889210       12.0565116494
  C        28.3456419437       11.1362244511       12.7025701586
  C        27.0225665557       10.7439460429       12.4111073948
  C        26.3235338686       11.4430574961       11.4102779496
  C        26.9065603493       12.5275737703       10.7609693058
  C        26.3592173631        9.6568456853       13.1677454721
  C        26.3387458336        9.6825704111       14.5890450631
  C        26.8294783650       10.7986804237       15.3384826574
  C        32.1838869448       21.2371516289       10.1407944494
  C        32.7824631860       22.4001867109       10.8618294315
  C        32.0329556512       23.0836914663       11.8322089694
  C        32.6039153208       24.1213210848       12.5626836813
  C        33.9411018198       24.5062907348       12.3445748862
  C        34.6733259956       23.8426302439       11.3417502170
  C        34.1046314153       22.7988325083       10.6132432224
  C        34.5670089459       25.5817945776       13.1489075878
  C        34.5441085013       25.5564157816       14.5710591896
  C        34.0282402631       24.4428988982       15.3065891177
  C        25.7290860972        8.6021732434       15.3044126249
  C        25.7258503123        8.6050874731       12.4908714282
  C        32.0786628589       21.1936419224        5.8691179029
  C        32.6452304524       22.3595833997        5.1286788191
  C        31.9162660112       22.9993321692        4.1143442208
  C        32.4886329310       24.0418574796        3.3870798960
  C        33.8039966067       24.4729646060        3.6518280884
  C        34.5131278645       23.8464554608        4.6952393028
  C        33.9459936817       22.8019233989        5.4193791150
  C        34.4470134660       25.5571707509        2.8718150377
  C        34.4818961399       25.5443298862        1.4493610852
  C        33.9975492293       24.4375337110        0.6832514965
  C        40.6120632464       17.0830893243        0.7501826851
  C        40.6101405002       17.1298952368        3.5604838416
  C        28.7470449816       14.0672576528        5.8185973788
  C        28.1422188997       12.9163983724        5.0836197359
  C        28.8775989624       12.2322340484        4.1036676120
  C        28.3026810980       11.1718131756        3.4072344605
  C        26.9758237203       10.7702296007        3.6631553983
  C        26.2580979416       11.4427708061        4.6700893369
  C        26.8318157012       12.5027506586        5.3697370041
  C        26.3376373033        9.6788782454        2.8881930772
  C        26.3291014837        9.6937119260        1.4661281181
  C        26.8236544230       10.8053281517        0.7143475671
  C        18.1355261765        3.1808948303       10.3171239786
  C        17.4060937767        4.2781706966       11.0156272063
  C        16.3902786196        3.9997660202       11.9430293092
  C        15.7425061849        5.0397098003       12.6065528077
  C        16.0944704601        6.3834430762       12.3670215549
  C        17.0839314169        6.6530160828       11.4033505879
  C        17.7330758948        5.6157073763       10.7382714403
  C        15.4701141618        7.4911214097       13.1301168006
  C        15.4853463531        7.4904082208       14.5518427702
  C        16.1868333264        6.4967434057       15.3050139776
  C        42.9457413873       31.8595218066       10.0728315722
  C        43.6461260792       30.7718216718       10.8168384584
  C        44.5916478003       31.0931872082       11.8028931130
  C        45.1973788202       30.0876696119       12.5505852208
  C        44.8709669891       28.7346044487       12.3357536202
  C        43.9451163053       28.4202216343       11.3225796371
  C        43.3362691869       29.4253380573       10.5745139442
  C        45.4886635081       27.6553322070       13.1389150384
  C        45.4928348544       27.6808988910       14.5606153911
  C        44.8056599989       28.6888691271       15.3072624045
  C        14.8564280756        8.5629259894       15.2642266735
  C        14.8749024510        8.5629494042       12.4515528760
  C        42.9463654048       31.9615842917        5.8089609967
  C        43.6915852569       30.8854009264        5.0954428331
  C        44.6564878856       31.1912763780        4.1234457840
  C        45.2780343027       30.1716793640        3.4057356706
  C        44.9539529745       28.8213951280        3.6431101800
  C        44.0200985489       28.5237405992        4.6535362616
  C        43.3918042429       29.5405260742        5.3656778759
  C        45.5630654612       27.7239918065        2.8578795360
  C        45.5333647659       27.7172991207        1.4365796139
  C        44.8269557803       28.7074891482        0.6836569630
  C        35.0988094074       26.6342857494        0.7492398881
  C        35.0543143356       26.6162737909        3.5594378800
  C        18.1488481980        3.2469235917        5.7067254921
  C        17.4302700379        4.3438348519        4.9974167105
  C        16.4148283842        4.0525493821        4.0741045489
  C        15.7665052064        5.0831640277        3.3986864119
  C        16.1213695930        6.4283867669        3.6211501585
  C        17.1130069115        6.7117891111        4.5781347610
  C        17.7606970272        5.6828916124        5.2579382855
  C        15.4907769885        7.5240604031        2.8487000825
  C        15.4964972630        7.5073760834        1.4275545219
  C        16.1931177990        6.5055919842        0.6808319219
  H        10.6724612126       12.4656573716        3.9045871285
  H        11.6947632571       10.5508696670        2.6627738239
  H        15.3917927358       11.1687238635        4.7722360006
  H        14.3513297169       13.0714756133        6.0173732900
  H        13.3762852411       11.6311264943        1.2013495616
  H        50.3227600560       22.7481187631        3.9866419397
  H        49.3196710374       24.6225656830        2.6806487091
  H        45.6425004127       24.1616274229        4.8641958499
  H        46.6633798539       22.2907230149        6.1725134798
  H        47.6302062964       23.5759870710        1.2461012393
  H        14.8724949794        8.5883238847        4.6085979355
  H        50.2871219204       22.7024324631       12.0605670499
  H        49.2692713898       24.5753511841       13.3605478396
  H        45.6110325175       24.1100428447       11.1453899606
  H        46.6530068269       22.2546394282        9.8311507477
  H        47.6082469353       23.5520399815       14.7968081974
  H        40.6109533331       17.0423279275       11.4061573467
  H        48.6871361088       14.0950948502        7.8000262387
  H        10.6813141087       12.4666534212       12.0934038870
  H        11.6895823907       10.5247188239       13.2970614350
  H        15.3934826408       11.1588940181       11.2055690924
  H        14.3650486830       13.0873207185        9.9903675603
  H        13.3758873021       11.6220883781       14.7531704621
  H        47.9301607308       14.2188669726        9.7110110264
  H        47.7799658720       14.3737159491        6.4954334762
  H        49.0823637136       18.5517364264       10.8669854468
  H        10.4161181461       14.1343890330        7.9989256097
  H        24.4824552030        3.0196275792        3.9166961321
  H        25.6323623962        4.8717090310        2.6894838174
  H        23.2685297319        7.7513846583        4.8385674483
  H        22.1373354757        5.8893288179        6.0681245071
  H        23.8397749931        5.7807622063        1.2542396678
  H        36.3622746008       32.1899921806        3.9793144038
  H        35.2168093499       30.3715767281        2.7123453270
  H        37.4679464120       27.4366509715        4.9074811278
  H        38.5939291190       29.2681549989        6.1839674044
  H        36.9894237347       29.4519809141        1.2994154454
  H        25.7564806762        8.5956831101        4.6498728585
  H        36.4536413911       32.2386924254       12.1144394131
  H        35.3450073939       30.4227038951       13.4130282497
  H        37.5495149242       27.4858357712       11.1717053686
  H        38.6321023236       29.3133592626        9.8596308057
  H        37.0298735697       29.4695112806       14.8523884847
  H        46.1094338747       26.5878108090       11.3855701788
  H        44.6682049062       35.1160512043        7.8139645290
  H        24.4520226206        3.0335521726       12.0754736059
  H        25.6001729879        4.8649700439       13.3201504947
  H        23.2019015998        7.7677917239       11.2422923879
  H        22.0658578325        5.9243913978        9.9966705488
  H        23.8280681665        5.7828503203       14.8060324392
  H        44.9534760462       34.3901555517        9.6950603271
  H        44.9014199636       34.2066895763        6.4906354658
  H        40.6658875492       33.2090894832       10.8531985511
  H        23.1509375544        1.9575460888        8.0050410387
  H        25.8019866129       19.6753679449        3.9233034539
  H        23.6353772307       19.7186713377        2.6909877291
  H        22.3501150969       16.2202524060        4.8377357568
  H        24.5258134989       16.1859372912        6.0646882988
  H        23.7229343218       17.6896244847        1.2441846704
  H        35.1850397126       15.4088660708        4.0396792614
  H        37.3005426019       15.3699891727        2.7217119435
  H        38.6773599550       18.8444440046        4.8510383726
  H        36.5534643920       18.8669872252        6.1713531985
  H        37.2206714896       17.3411898619        1.2517361188
  H        20.3539728393       17.9836119967        4.6660473517
  H        35.1366217150       15.3920224654       12.1421952705
  H        37.2954148540       15.3186845663       13.3867521891
  H        38.6767023091       18.7438924694       11.1819322524
  H        36.5151955694       18.7954545416        9.9267300716
  H        37.2216141125       17.3149770961       14.8014772159
  H        35.1717936350       26.6751855794       11.4058707209
  H        28.5021385704       21.0734123950        7.8735986549
  H        25.7435685276       19.6496940357       12.1296596652
  H        23.5608082534       19.7047446948       13.3509614294
  H        22.3068930720       16.1690591117       11.2483530388
  H        24.4904336755       16.1341720334       10.0267072399
  H        23.7025080051       17.6733900777       14.7946965776
  H        29.0082455960       21.7266557885        9.7330539242
  H        29.1923676376       21.7136908115        6.5599350755
  H        32.0192757752       18.6313068697       10.9870287982
  H        27.3908318335       19.0525357088        8.0542546996
  H        14.8494286420       19.6497908807       12.1376146040
  H        17.0127601267       19.6965511437       13.3796846234
  H        18.3032776490       16.1891599465       11.2511220854
  H        16.1358949095       16.1579317110       10.0087522772
  H        16.9210713945       17.6972207871       14.8434081119
  H        46.0818727221       15.4264658381       12.0521979036
  H        43.9524604676       15.3502969653       13.3478291328
  H        42.5244402656       18.7811107864       11.1809804874
  H        44.6550804641       18.8325507757        9.8753497115
  H        44.0070726431       17.3046386258       14.8027440924
  H        20.2913464458       17.9222196774       11.4183050646
  H        46.0476677985       15.3959827707        4.0214796170
  H        43.9207303291       15.3375917364        2.7197682928
  H        42.5294409578       18.8045648593        4.8520515770
  H        44.6623297934       18.8479979257        6.1556806177
  H        44.0055323124       17.3070905389        1.2517803971
  H        46.1992437682       26.6825985683        4.6233648920
  H        52.7412862242       21.0627252829        8.1946882321
  H        14.8746133251       19.6745886252        3.8963121483
  H        17.0740240426       19.7507892828        2.7139303058
  H        18.3364391768       16.2350966097        4.8450682894
  H        16.1388843530       16.1825561353        6.0368150319
  H        16.9406288613       17.7141886192        1.2909109888
  H        52.3228709559       21.6734603492        6.2942082510
  H        52.0137680053       21.7025277740        9.4957392514
  H        49.0681914270       18.6083281325        5.2039621388
  H        13.2475082032       19.0162573860        7.9771975000
  H        29.9497466243       12.5298466772       12.2864463571
  H        28.9095159232       10.5780998572       13.4468688776
  H        25.3015329329       11.1517611914       11.1766977206
  H        26.3628359598       13.0868408402       10.0036081492
  H        27.1832258145       11.6727624648       14.8005213142
  H        31.0049591895       22.7777160292       12.0096000557
  H        32.0160429586       24.6482351059       13.3110627145
  H        35.7080066595       24.1298668981       11.1658212597
  H        34.6767345084       22.2631916615        9.8591300312
  H        33.6797285013       23.5715506744       14.7594948679
  H        25.7595957020        8.5868599011       11.4029076698
  H        30.9066210274       22.6573998210        3.8975454877
  H        31.9149977795       24.5371222131        2.6066766377
  H        35.5312131992       24.1661047507        4.9077053290
  H        34.5015247769       22.2977548304        6.2064880739
  H        33.6258865976       23.5615732889        1.2073129308
  H        40.6102737914       17.1069044629        4.6485813688
  H        32.5061480410       14.1617925948        8.2487162197
  H        29.8995139122       12.5476135217        3.9054090390
  H        28.8812248381       10.6369398515        2.6571452676
  H        25.2312457664       11.1466821447        4.8746639024
  H        26.2734302551       13.0375729611        6.1343751586
  H        27.1728768253       11.6837342281        1.2492648133
  H        33.3084607772       14.2301697541        6.4677850814
  H        33.4037717443       14.3653831072        9.6161065558
  H        32.1121082286       18.4215686534        5.1300972287
  H        30.2049077205       14.1875079270        8.0946891836
  H        16.1181722325        2.9632533571       12.1293236074
  H        14.9529785344        4.8202569799       13.3221061022
  H        17.3664252389        7.6858944726       11.2103445340
  H        18.5151802486        5.8184085264       10.0105070438
  H        16.7532834434        5.7393316095       14.7715019988
  H        44.8278989473       32.1402834969       11.9770365881
  H        45.9372436573       30.3414681158       13.3065164374
  H        43.6823958575       27.3781495801       11.1525180628
  H        42.5996482546       29.1899822714        9.8098531209
  H        44.2302383871       29.4365947325       14.7689684307
  H        14.8512108149        8.5462155593       11.3633310676
  H        44.9002531521       32.2339452446        3.9322098166
  H        46.0251591325       30.4128894646        2.6527087641
  H        43.7628105243       27.4840409216        4.8448254029
  H        42.6449665037       29.3177610653        6.1238035877
  H        44.2684088891       29.4703225670        1.2182823943
  H        35.0016708759       26.6307590587        4.6464832420
  H        36.6052173982       35.1339781199        8.1806968994
  H        16.1435779131        3.0129807470        3.9045923402
  H        14.9740092363        4.8562829528        2.6888011727
  H        17.3967426540        7.7472382374        4.7547741504
  H        18.5437845220        5.8933651191        5.9824699195
  H        16.7644984500        5.7553051859        1.2192651208
  H        36.2789208423       34.4821199908        6.2733117585
  H        36.3807955211       34.2090734417        9.4996752206
  H        40.5786163972       33.2016546520        5.1540699413
  H        17.4713820710        1.9470660261        7.9741888391
  H        29.4304085818       19.7524041308       12.4603520555
  H        28.7907325093       18.7040339186        3.6017606556
  H        32.0841487483       15.9433676324        3.5961507479
  H        32.1103509924       16.6131440275       12.6393512783
  H        28.2366219339       18.6998838457       14.5144798160
  H        29.5423773477       14.7905916431       14.5803366123
  H        32.5066871848       17.4551126782        1.1446535833
  H        18.8535672884        0.8690918410       12.3352268778
  H        40.5280531978       35.2290519604        3.9521693995
  H        42.3233534171       34.4183309837        3.5909387150
  H        22.0878263345        0.6920731090       12.3514656393
  H        11.5969999031       18.7126433594       12.3824552533
  H        52.2650050565       18.4313052053        3.6775288756
  H        49.2550936951       16.4769382390        3.5845352176
  H        10.1503092418       15.7982467180       12.2925548794
  H        50.8502144491       17.6925018723        3.9541883154
  H        10.0460972187       17.3947225390       12.0519219660
  H        20.2148747878        0.0023310548       12.0420132380
  H        39.1835136970       36.1241633447        3.6862903147
 Ni        30.6954771315       17.6078453644        2.5870248645
 Ni        31.1977192896       15.9086208512        0.0806356100
 Ni        29.9307502563       17.8167282445       -0.0028458325
 Ni        30.1824688681       17.8190941837       13.4928852608
  O        10.6499316809       14.3651357982        5.4858488287
  O        12.6131288730       14.6575599767        6.5839101961
  O        49.1476989878       16.8459261432        7.9898560976
  O        50.3502615150       20.9357136546        5.6480956350
  O        48.3485709225       20.5932036687        6.6659997655
  O        11.0516301920       17.0538244166        6.5007363476
  O        50.3210145305       20.8816358516       10.4068425256
  O        48.3467234919       20.5867058307        9.3271643697
  O        49.5434806721       18.2483544654       10.0682888496
  O        12.3589679990       18.6246395192        7.9997012909
  O        48.6931965597       14.1486221854        6.7513118065
  O         8.2098391127       14.2105895251        9.3226264630
  O        10.7352956310       14.5067865504       10.6643087881
  O        12.5717620228       14.5828089135        9.3285035453
  O        22.8444990907        2.0423217830        5.4872681053
  O        21.6065293212        3.5927521206        6.5889121869
  O        42.0579534926       34.1372250718        7.9790598581
  O        37.9812628358       33.1363189540        5.5723475084
  O        39.2172505351       31.5750492754        6.6657217971
  O        20.3083648249        1.0397222399        6.5023359380
  O        38.0243598098       33.1847802135       10.4157421315
  O        39.2186320586       31.5831771062        9.3271947715
  O        40.6521787071       33.7692381410       10.0601869754
  O        18.2560573161        1.3758667192        7.9968293403
  O        44.6222148065       35.1005379193        6.7587774062
  O        24.2053514363        0.0000138024        9.3208007757
  O        22.7535213751        2.0578220946       10.5843151288
  O        21.6260220546        3.5977744324        9.3458199406
  O        27.4957892475       18.7500611191        5.4869679154
  O        26.7565875650       16.9385365970        6.6478779479
  O        30.6343677789       19.3494395842        8.0082948747
  O        33.5900807186       16.2742929638        5.6694258454
  O        34.2714455933       18.1667281562        6.7398453989
  O        29.5737442350       17.0455047804        6.5738038496
  O        33.4665580509       16.3507854065       10.5782308999
  O        34.2591867701       18.1557274972        9.4172442363
  O        31.6416811135       18.3152907074       10.1499719211
  O        30.3155416479       15.1525827145        8.0934482931
  O        28.5525115869       21.0288569519        6.8277392593
  O        28.5139505358       20.9564978739        9.4048160212
  O        27.4556628054       18.6794528931       10.6541296793
  O        26.6944508914       16.9272002276        9.4100141029
  O        13.1484717486       18.6929781907       10.5872986296
  O        13.9192139546       16.9161919593        9.4049250272
  O        50.5960027712       19.3501828403        8.0206727060
  O        47.6811772534       16.3274165712       10.4175073596
  O        46.9493877410       18.1756420712        9.3258787850
  O        11.0695504292       17.0156249270        9.4895838844
  O        47.6757197790       16.3359758134        5.6526475274
  O        46.9262935310       18.2359356891        6.6639140347
  O        49.5685532301       18.3176995681        5.9824585816
  O        10.3186209685       15.1002283120        7.9971534193
  O        52.6707623122       21.0278771931        9.2418184269
  O        12.1468248691       20.8911999749        6.6733012855
  O        13.1076053981       18.6137365382        5.3257018648
  O        13.9571195764       16.9870997609        6.6652760173
  O        29.9685896936       14.5142695935       10.7453282418
  O        28.0820818988       14.6556575401        9.4899952860
  O        32.0714963499       16.8495135220        8.0886135311
  O        30.9670763614       20.9529877011       10.4027770830
  O        32.9476676336       20.5930692324        9.3335691313
  O        29.5590518437       17.0768111744        9.5808802778
  O        30.8517746849       20.8761587574        5.6461935857
  O        32.8679000368       20.5849624136        6.6645357584
  O        31.6792823638       18.2502872794        5.9843287232
  O        28.2826614345       18.6682799422        8.0519899402
  O        32.4857120456       14.2182661945        9.3295895220
  O        32.4044186135       14.2181191202        6.8244602910
  O        29.9190366205       14.4398008940        5.4900034819
  O        28.0380498545       14.5898817874        6.7515386890
  O        17.8892512323        1.9666053763       10.6627526546
  O        18.9563779585        3.5271189032        9.4079316931
  O        39.1685469979       34.1385964272        7.9971771172
  O        43.2801645061       33.0589120293       10.3316767566
  O        42.0344210969       31.5064595739        9.2415728458
  O        20.3176492828        1.0367388870        9.4801040253
  O        43.2760816895       33.1825349690        5.5748847195
  O        42.0052394283       31.5840819423        6.5829934350
  O        40.5788550480       33.7748320625        5.9358354522
  O        22.3673724308        1.3849125460        7.9981598490
  O        36.6728593725       35.0996742233        9.2333448531
  O        16.4456905612        0.0641851235        6.6682613857
  O        17.9365578564        2.0433735556        5.3264650317
  O        18.9192983061        3.5930493416        6.6660764631
  O        29.7038029401       18.6115342384        3.9243838743
  O        29.8192187558       18.9912201439       11.9921016872
  O        31.3813262789       16.4192853360        4.0730059805
  O        31.1730670610       16.4790620898       12.4073194815
  O        31.9852161239       16.7103826336        1.5030031119
  O        30.5129757579       14.8750113378       14.5660686929
  O        29.1794988821       18.9147656461       14.6557885137
  O        39.4568058301       35.2436545953        4.0020419582
  O        19.1415689490        0.0046592673       11.9905021356
  O        41.9696324510       35.1727978817        4.0871532210
  O        21.6913495454       -0.0693694848       11.8959105981
  O        51.3650755816       18.6143182726        4.0054641020
  O        10.7511517374       18.7470965725       11.9049861234
  O        50.0795256424       16.4127829073        4.0917803546
  O         9.5243795438       16.4831335862       11.9911860768
 Zr         9.2973656460       16.0527265344        6.1824458591
 Zr        49.8366656765       16.0069789544        9.7465553708
 Zr        22.0729784780        0.0297779811        6.1890831571
 Zr        42.4607738727       35.1535698220        9.8010108498
 Zr        29.5976417470       19.0519274667        6.2044202732
 Zr        29.5635594489       19.1830070185        9.8432869448
 Zr        11.0382647651       19.0521045224        9.8279227932
 Zr        11.0441523775       19.1548675080        6.2510795769
 Zr        31.3128615781       16.1114135896        9.8947541795
 Zr        31.3769574217       16.0069922077        6.2408869230
 Zr        18.6009968426       -0.0018258869        9.7634321456
 Zr        18.5065471405       -0.0079539266        6.2136106543
 Zr        12.3025588485       16.3235148049        7.9903646441
 Zr        48.6165792221       18.8331424320        8.0107411774
 Zr        20.3160701065        2.4739593189        7.9911706830
 Zr        40.6427869382       32.6866479823        7.9779838840
 Zr        28.3385083491       16.3384270935        8.0752758882
 Zr        32.5999881204       18.8263001278        8.0412630703
  H        30.2060452661       18.5599302555        1.4353357227
  H        30.7241527923       15.3771955220       13.6978304318
  H        31.0457020474       17.3044492863       14.9078066079
