     571
 i =      104, E =     -4761.6338503725
  C        11.8587108902       14.0535616027        5.7415565336
  C        12.4562111250       12.8906203728        5.0232277263
  C        11.7043664547       12.1714251768        4.0818887438
  C        12.2807255896       11.1091942165        3.3895556065
  C        13.6214208973       10.7396634993        3.6170038559
  C        14.3547801414       11.4435482182        4.5900913023
  C        13.7819050750       12.5085511012        5.2815793169
  C        14.2609229507        9.6489492519        2.8436262177
  C        14.2561190201        9.6567671782        1.4219224825
  C        13.7428353053       10.7588418511        0.6680271118
  C        49.1268966418       21.2331331111        5.8797608952
  C        48.5500619970       22.4010744382        5.1525837840
  C        49.3001176888       23.0684992525        4.1716962759
  C        48.7331597146       24.1076240297        3.4384734783
  C        47.4026092612       24.5091970357        3.6670802498
  C        46.6716127152       23.8601929586        4.6804658420
  C        47.2340886351       22.8152964730        5.4098209675
  C        46.7723341781       25.5869109739        2.8698343610
  C        46.7611543046       25.5572445967        1.4480710885
  C        47.2610598201       24.4421341719        0.7045777108
  C        14.8601202880        8.5704588447        0.7086630099
  C        14.8918016796        8.5970673370        3.5202816267
  C        49.1131629483       21.2032903469       10.1453862918
  C        48.5277136897       22.3647104820       10.8725721320
  C        49.2669544130       23.0255132087       11.8654011510
  C        48.6906125060       24.0600771564       12.5968622516
  C        47.3601528162       24.4567109139       12.3587110032
  C        46.6397160528       23.8117197399       11.3352665150
  C        47.2132817792       22.7757879304       10.6035070672
  C        46.7216652944       25.5316835455       13.1497337540
  C        46.7332903880       25.5280291363       14.5714419414
  C        47.2487394827       24.4288124505       15.3278146156
  C        40.6191684542       17.1176133842       15.3087742863
  C        40.6310574124       17.1142223292       12.4988259900
  C        11.8830063544       14.0866040617       10.2855233604
  C        12.4723258973       12.9107943538       10.9897723116
  C        11.7146840309       12.1773541825       11.9155904547
  C        12.2812634966       11.0948732136       12.5839824306
  C        13.6202089657       10.7214103516       12.3524597633
  C        14.3583467179       11.4372617008       11.3920016500
  C        13.7929256468       12.5184539496       10.7193264374
  C        14.2537530637        9.6245885105       13.1228521379
  C        14.2523519579        9.6444583723       14.5446958538
  C        13.7423142602       10.7533274216       15.2917722189
  C        22.5130342249        3.2442028646        5.7533200044
  C        23.2306584289        4.3474832441        5.0542014801
  C        24.2279995805        4.0634389456        4.1094624123
  C        24.8590276510        5.1001341764        3.4270240727
  C        24.5086587118        6.4432906095        3.6690326521
  C        23.5394931136        6.7188713275        4.6508882641
  C        22.9037625176        5.6839089035        5.3318973130
  C        25.1192618185        7.5466677517        2.8928004707
  C        25.0937067634        7.5379629319        1.4712926223
  C        24.3875549722        6.5410555029        0.7257646492
  C        38.2988336349       31.9277264319        5.8515085502
  C        37.5588962506       30.8383727755        5.1487198933
  C        36.5929897432       31.1448631212        4.1777229424
  C        35.9640428304       30.1267680026        3.4660040534
  C        36.2856295244       28.7756496662        3.7019634412
  C        37.2212354329       28.4764566363        4.7103680636
  C        37.8540768932       29.4936249102        5.4215141797
  C        35.6758220300       27.6875542341        2.9024145866
  C        35.7141364019       27.7040415858        1.4805794776
  C        36.4274152135       28.7047027616        0.7477419811
  C        25.7215831182        8.6047320392        0.7508092298
  C        25.7179299240        8.6209410755        3.5629766547
  C        38.3306195217       31.9616047870       10.1596662386
  C        37.6129603595       30.8890826693       10.9087694643
  C        36.6806675626       31.2001573666       11.9105659270
  C        36.0695627023       30.1840422950       12.6431860936
  C        36.3758319478       28.8304385740       12.3978282282
  C        37.2890762798       28.5291676692       11.3687368651
  C        37.9020998601       29.5419190786       10.6373648800
  C        35.7595392304       27.7329412589       13.1794469618
  C        35.7566045979       27.7275086037       14.6019472623
  C        36.4464914522       28.7166681076       15.3710653715
  C        46.1352954177       26.6206818116       15.2815750872
  C        46.0877734357       26.5800784167       12.4736779102
  C        22.4615815701        3.2554695148       10.2574583082
  C        23.1576640630        4.3625095550       10.9801072566
  C        24.1607245831        4.0734511213       11.9190522079
  C        24.7914556668        5.1014867198       12.6153277966
  C        24.4393771168        6.4482140022       12.3952712697
  C        23.4593260330        6.7305313607       11.4248560197
  C        22.8239190156        5.7027116225       10.7289314102
  C        25.0740960911        7.5438478109       13.1693046011
  C        25.0711409528        7.5357989310       14.5920562040
  C        24.3749837967        6.5410626303       15.3489493940
  C        26.6221493296       17.8647377619        5.7843582604
  C        25.3141776792       17.9102360156        5.0603111466
  C        25.0560905492       18.9070882097        4.1062090283
  C        23.8432414396       18.9296569251        3.4200345721
  C        22.8513261470       17.9581555834        3.6651711943
  C        23.1056956666       16.9838347557        4.6489579212
  C        24.3204698730       16.9563397682        5.3330882847
  C        21.5783131421       17.9454186294        2.8998448609
  C        21.5782726923       17.9266241857        1.4769937802
  C        22.7839917680       17.8064202451        0.7160810150
  C        34.4325926651       17.1980249000        5.9177998506
  C        35.7224704756       17.1534016319        5.1678877260
  C        35.9087690847       16.2114437770        4.1441225773
  C        37.0913872721       16.1978636753        3.4093812324
  C        38.1175028907       17.1264573388        3.6742880885
  C        37.9305826033       18.0499544864        4.7210689802
  C        36.7470554139       18.0677820595        5.4555276460
  C        39.3716306023       17.1367667956        2.8870090696
  C        39.3660460542       17.1528206776        1.4647478066
  C        38.1593030063       17.2802949721        0.7071091585
  C        20.3315983829       17.9436859817        0.7682348333
  C        20.3531599545       17.9460237822        3.5816679940
  C        34.4365378952       17.2373625183       10.1908431085
  C        35.7381887090       17.1376325125       10.9123240807
  C        35.9401320392       16.1705758818       11.9081976674
  C        37.1316777946       16.1445546349       12.6292998304
  C        38.1503200039       17.0838922273       12.3741288431
  C        37.9546449229       18.0221337731       11.3431979646
  C        36.7626376927       18.0537322969       10.6259707066
  C        39.4004364847       17.1064242772       13.1659796032
  C        39.3807597301       17.1356409441       14.5871592827
  C        38.1657828359       17.2691940313       15.3304973989
  C        35.1162842584       26.6509975852       15.3015893220
  C        35.1721110538       26.6629948666       12.4919909728
  C        26.5722039663       17.8287576588       10.3258655906
  C        25.2561877705       17.8785917566       11.0295490755
  C        24.9874067851       18.8918142357       11.9621547684
  C        23.7701142537       18.9183319243       12.6370452797
  C        22.7913175390       17.9322456087       12.4017531391
  C        23.0532311544       16.9448076024       11.4348036191
  C        24.2716899787       16.9157339418       10.7589612637
  C        21.5281094488       17.9151212441       13.1760220495
  C        21.5525572479       17.9101746606       14.5976552437
  C        22.7714811847       17.7988827111       15.3394903896
  C        14.0468368465       17.8291343131       10.2888409767
  C        15.3509350134       17.8870962053       11.0143793282
  C        15.6062553916       18.8906911630       11.9620150668
  C        16.8149130566       18.9129313904       12.6553114081
  C        17.8028409993       17.9345302514       12.4232891801
  C        17.5521804042       16.9550853456       11.4436261195
  C        16.3429314018       16.9282386040       10.7518059265
  C        19.0719478918       17.9198764497       13.1923184725
  C        19.0710480894       17.9198023758       14.6148726862
  C        17.8642954794       17.8203897975       15.3764565640
  C        46.8027529596       17.2170477916       10.1573987131
  C        45.5095169713       17.1498992124       10.8985692775
  C        45.3053232192       16.1732091228       11.8857193010
  C        44.1212244426       16.1499021171       12.6181898627
  C        43.1102345773       17.1029234917       12.3858242445
  C        43.3110315111       18.0579621826       11.3707109363
  C        44.4962023130       18.0855628250       10.6395228977
  C        41.8566386007       17.1122409566       13.1752692636
  C        41.8646926968       17.1251886132       14.5975528641
  C        43.0743834236       17.2279075254       15.3541265855
  C        20.3180087791       17.9339662102       15.3230028171
  C        20.2960120014       17.9000385468       12.5097998883
  C        46.7845108426       17.2329471030        5.8858590673
  C        45.4823069535       17.1314395691        5.1656396871
  C        45.2645111816       16.1391362675        4.1975629210
  C        44.0766524544       16.1156371551        3.4702094319
  C        43.0755936002       17.0814146063        3.6927781504
  C        43.2844678664       18.0440937843        4.6982623240
  C        44.4733803644       18.0740710143        5.4206928921
  C        41.8275727307       17.1057052032        2.8969571870
  C        41.8499338878       17.1214527198        1.4754967208
  C        43.0674058563       17.2231020268        0.7312452105
  C        46.1531218199       26.6371314326        0.7263393574
  C        46.1625184146       26.6560923748        3.5359773503
  C        14.0460062340       17.8323271308        5.7089842006
  C        15.3672783597       17.9084491272        5.0192299469
  C        15.6397662525       18.9247841527        4.0912784869
  C        16.8688112634       18.9639780528        3.4366496641
  C        17.8533633604       17.9860588517        3.6838911876
  C        17.5878197313       16.9989156122        4.6504297709
  C        16.3607474892       16.9591597386        5.3086171303
  C        19.1206783440       17.9633653604        2.9147236206
  C        19.0964689863       17.9409413356        1.4931849937
  C        17.8767127986       17.8299868463        0.7526434240
  C        28.8094753964       14.0894435814       10.3901053638
  C        28.2011495880       12.9121469748       11.0745169351
  C        28.9340032130       12.1585682650       12.0033796994
  C        28.3382877050       11.0821641865       12.6559217186
  C        26.9960096889       10.7348761531       12.4025234229
  C        26.2847422266       11.4676054007       11.4354633278
  C        26.8780668018       12.5446582274       10.7818602351
  C        26.3309593329        9.6534037760       13.1653210471
  C        26.3268129785        9.6761043829       14.5864744768
  C        26.8410212218       10.7843244524       15.3317283863
  C        32.1784649457       21.2375378208       10.1482339199
  C        32.7708019811       22.4067843403       10.8661735248
  C        32.0163839126       23.0938449937       11.8297959534
  C        32.5835918076       24.1362173385       12.5569112704
  C        33.9218402188       24.5196871557       12.3429474911
  C        34.6591960910       23.8514255919       11.3472581954
  C        34.0937791710       22.8042516010       10.6212942571
  C        34.5473756818       25.5956498744       13.1466658852
  C        34.5263271636       25.5694520687       14.5684895924
  C        34.0053864070       24.4576479213       15.3031507332
  C        25.7143716028        8.6001329760       15.3059507104
  C        25.6885283084        8.6061124471       12.4925290315
  C        32.0780242951       21.2004435393        5.8772882239
  C        32.6502714946       22.3599336072        5.1277386637
  C        31.9118515553       23.0193387884        4.1327225652
  C        32.4848116601       24.0589733307        3.4014187565
  C        33.8100864433       24.4710068489        3.6468364779
  C        34.5302028725       23.8244739370        4.6697958401
  C        33.9626929874       22.7807426202        5.3955529185
  C        34.4498011066       25.5583837820        2.8687201793
  C        34.4749527659       25.5511529402        1.4467319464
  C        33.9797888694       24.4498889568        0.6796691210
  C        40.6112553066       17.1212712775        0.7538823486
  C        40.5973214526       17.1286475885        3.5638069348
  C        28.7442638960       14.0659263733        5.8162187506
  C        28.1401912026       12.9174717491        5.0782829493
  C        28.8856127528       12.2116064847        4.1213125000
  C        28.3091041942       11.1530553586        3.4231100117
  C        26.9724870557       10.7731930286        3.6580530528
  C        26.2442832640       11.4660621828        4.6433888716
  C        26.8184051457       12.5257915675        5.3425569501
  C        26.3346014601        9.6803361315        2.8850451655
  C        26.3298804814        9.6902606467        1.4631462499
  C        26.8401686434       10.7925946566        0.7078304966
  C        18.1354578436        3.1810913695       10.3171746001
  C        17.4061631815        4.2782566105       11.0157346514
  C        16.3905034677        3.9998984730       11.9433442362
  C        15.7427768065        5.0398812385       12.6068095584
  C        16.0946282790        6.3836285868       12.3670865078
  C        17.0839388421        6.6531364344       11.4032347347
  C        17.7330466237        5.6158002618       10.7381925278
  C        15.4702617853        7.4912934076       13.1301420511
  C        15.4854367906        7.4905153182       14.5518585810
  C        16.1870644856        6.4969563420       15.3050369631
  C        42.9458110879       31.8595323512       10.0728909092
  C        43.6461524712       30.7718358998       10.8168201369
  C        44.5913927332       31.0931653082       11.8031738579
  C        45.1970964619       30.0876172071       12.5508403139
  C        44.8709937702       28.7345076330       12.3357262818
  C        43.9455527120       28.4201706788       11.3221402417
  C        43.3367507754       29.4253088787       10.5740839256
  C        45.4885101014       27.6551910897       13.1389422261
  C        45.4926278797       27.6808249032       14.5606389320
  C        44.8055982960       28.6888878195       15.3072959756
  C        14.8563670129        8.5629422288       15.2642300194
  C        14.8750624884        8.5631200899       12.4515533195
  C        42.9464851097       31.9616830656        5.8089471784
  C        43.6918838013       30.8855464322        5.0956854110
  C        44.6561184810       31.1914552591        4.1230213595
  C        45.2776615263       30.1718632147        3.4053237403
  C        44.9542362058       28.8215061416        3.6432641688
  C        44.0212666545       28.5238560627        4.6545429604
  C        43.3929855678       29.5406192286        5.3667083693
  C        45.5631305710       27.7240742894        2.8579576710
  C        45.5332596922       27.7173372480        1.4366569231
  C        44.8269259929       28.7075510185        0.6836908415
  C        35.0924575816       26.6405997782        0.7470218840
  C        35.0616049161       26.6137854060        3.5575720164
  C        18.1486273053        3.2470654637        5.7065475046
  C        17.4300423247        4.3438282425        4.9973296090
  C        16.4148074528        4.0525680186        4.0737591297
  C        15.7665010124        5.0832074321        3.3984057369
  C        16.1211677762        6.4284571080        3.6211291966
  C        17.1125865110        6.7118179752        4.5783579959
  C        17.7602744248        5.6829056518        5.2581071865
  C        15.4906179195        7.5241256488        2.8486880903
  C        15.4964158979        7.5074079315        1.4275553413
  C        16.1932718100        6.5057763483        0.6808516796
  H        10.6721343945       12.4653406183        3.9051073412
  H        11.6943281221       10.5504914678        2.6632732726
  H        15.3919547454       11.1692765176        4.7714963016
  H        14.3515451302       13.0720762292        6.0166484031
  H        13.3757467216       11.6309256425        1.2013538067
  H        50.3228444583       22.7484911335        3.9869956169
  H        49.3196990661       24.6229951853        2.6810069190
  H        45.6421145106       24.1609502869        4.8636171243
  H        46.6630627398       22.2898992350        6.1717990895
  H        47.6296728648       23.5757977654        1.2462831539
  H        14.8723027551        8.5884380782        4.6085919182
  H        50.2870559946       22.7027590494       12.0601908392
  H        49.2690364578       24.5755729362       13.3603156871
  H        45.6102566284       24.1088400345       11.1463089649
  H        46.6524496979       22.2535065329        9.8320285191
  H        47.6075711810       23.5517234602       14.7968977456
  H        40.6354973211       17.0692277716       11.4114024034
  H        48.6869178487       14.0951149040        7.7999561965
  H        10.6811033418       12.4662003441       12.0927217095
  H        11.6893648395       10.5242728688       13.2964255333
  H        15.3939260634       11.1596963282       11.2064096928
  H        14.3654348026       13.0880795201        9.9911276934
  H        13.3754494666       11.6219209097       14.7531263267
  H        47.9301841611       14.2183960791        9.7110066747
  H        47.7798751491       14.3731570706        6.4949731487
  H        49.0830457994       18.5519176089       10.8671400639
  H        10.4159119874       14.1343620943        7.9987892541
  H        24.4862210182        3.0238842819        3.9203389845
  H        25.6325766471        4.8795472035        2.6946434532
  H        23.2616696142        7.7529192464        4.8442118532
  H        22.1333943369        5.8875946759        6.0716428629
  H        23.8237577249        5.7865419698        1.2665421466
  H        36.3598964362       32.1889073515        3.9822653263
  H        35.2159271495       30.3697406617        2.7145650936
  H        37.4781756471       27.4364778182        4.9010469366
  H        38.6019036478       29.2689240338        6.1784350216
  H        36.9907788107       29.4529993229        1.2975374989
  H        25.7494053255        8.6064073320        4.6509346804
  H        36.4544260628       32.2448320376       12.1118569554
  H        35.3399975205       30.4320845795       13.4109671258
  H        37.5393238243       27.4885925377       11.1728730194
  H        38.6280311471       29.3133174386        9.8608168324
  H        37.0255131660       29.4738457384       14.8500859779
  H        46.1093302353       26.5875044888       11.3856440015
  H        44.6684914720       35.1162469350        7.8138539773
  H        24.4368413144        3.0345324872       12.0844560507
  H        25.5730343162        4.8704965802       13.3359794812
  H        23.1761090222        7.7658074187       11.2460023215
  H        22.0515532190        5.9179054764        9.9941196302
  H        23.8010042392        5.7870703299       14.8181373386
  H        44.9543034904       34.3906762107        9.6952859206
  H        44.9023111663       34.2069954989        6.4905461099
  H        40.6667564600       33.2096048956       10.8533829888
  H        23.1505648514        1.9578947329        8.0052707547
  H        25.8197719353       19.6581339227        3.9178402343
  H        23.6484675959       19.7094506886        2.6867992150
  H        22.3521959051       16.2243951777        4.8478078352
  H        24.5267258700       16.1901289674        6.0768064532
  H        23.7249992502       17.6881125337        1.2455041181
  H        35.1084572134       15.5059913920        3.9316238698
  H        37.2352736402       15.4571254331        2.6258741464
  H        38.7132791164       18.7761513878        4.9307247825
  H        36.5879250892       18.7942869485        6.2491221524
  H        37.2219013865       17.4143719449        1.2389097022
  H        20.3598436943       17.9842863675        4.6695990739
  H        35.1459613826       15.4573455574       12.1166232248
  H        37.2854420553       15.3918982409       13.3995043887
  H        38.7341116536       18.7533370515       11.1392778036
  H        36.5914272689       18.7974989969        9.8515914654
  H        37.2334431955       17.3942101036       14.7874297168
  H        35.1548726429       26.6879538303       11.4040490483
  H        28.5066828000       21.0730108286        7.9698948488
  H        25.7451630153       19.6515172417       12.1395812179
  H        23.5618808403       19.7075964058       13.3562151493
  H        22.3055290815       16.1769824626       11.2467831743
  H        24.4898999272       16.1412188728       10.0275662505
  H        23.7029030519       17.6753403780       14.7949282225
  H        29.0196633918       21.7143455882        9.7521322192
  H        29.1697215028       21.7353517684        6.6315899277
  H        32.0719158443       18.5568798330       11.0050737423
  H        27.4040035685       19.0732595000        8.0917909746
  H        14.8469662065       19.6489534282       12.1398824130
  H        17.0090602496       19.6975854593       13.3834256640
  H        18.3043632782       16.1917352851       11.2552467398
  H        16.1381984194       16.1587386306       10.0112347686
  H        16.9218176127       17.7031380639       14.8495246129
  H        46.0919396743       15.4459799987       12.0727854517
  H        43.9651018185       15.3852734407       13.3760171594
  H        42.5388266043       18.8018297937       11.1857476263
  H        44.6668025346       18.8381797659        9.8732435794
  H        44.0151089518       17.3406686598       14.8228364724
  H        20.2897221365       17.9265926590       11.4215796287
  H        46.0413998344       15.3996236351        4.0170456615
  H        43.9116130929       15.3445073484        2.7208528999
  H        42.5176864131       18.7948701144        4.8776556862
  H        44.6542416008       18.8366010288        6.1743137409
  H        44.0029662703       17.3309851932        1.2724559876
  H        46.1995881182       26.6826913601        4.6234145096
  H        52.7412111858       21.0626273953        8.1946698014
  H        14.8784429004       19.6777459176        3.8996985526
  H        17.0790082780       19.7550861262        2.7200752157
  H        18.3392975253       16.2375915579        4.8493885546
  H        16.1406758817       16.1839699331        6.0385879777
  H        16.9435104722       17.7201098288        1.2968241552
  H        52.3225240099       21.6732689173        6.2942411775
  H        52.0132805145       21.7021142396        9.4955990576
  H        49.0676305222       18.6076450879        5.2038825246
  H        13.2476152306       19.0161543326        7.9773758651
  H        29.9686940888       12.4304450978       12.1994825526
  H        28.9077937673       10.4975039549       13.3751867778
  H        25.2475779147       11.2087266143       11.2325551623
  H        26.3266271227       13.1319929469       10.0517501515
  H        27.2102603018       11.6502285983       14.7905548510
  H        30.9885268191       22.7852051436       12.0042893351
  H        31.9923660905       24.6681456498       13.2991599923
  H        35.6950130882       24.1372573784       11.1757462146
  H        34.6692254942       22.2632992599        9.8735069526
  H        33.6491827894       23.5913087754       14.7530876620
  H        25.7125661856        8.5897799709       11.4043353113
  H        30.8889458841       22.7024316276        3.9413769142
  H        31.9034299031       24.5716024785        2.6379770944
  H        35.5559362456       24.1296868170        4.8664584822
  H        34.5253821866       22.2615033704        6.1677665480
  H        33.6035500036       23.5771060590        1.2053248935
  H        40.5924086784       17.0861223854        4.6513139760
  H        32.5098212779       14.1513324578        8.2510329187
  H        29.9185080181       12.5025917790        3.9433543211
  H        28.8945439414       10.6021802742        2.6901210867
  H        25.2099858961       11.1851808626        4.8311140185
  H        26.2529872847       13.0768134904        6.0903582623
  H        27.2078409648       11.6650394951        1.2400931572
  H        33.2956161777       14.1936376426        6.4401636807
  H        33.4053850152       14.4087354866        9.6013004270
  H        32.1129898316       18.5256534940        5.1797526306
  H        30.2157126232       14.1862226624        8.0853530627
  H        16.1184733136        2.9634011400       12.1298066460
  H        14.9533764439        4.8205240403       13.3225285874
  H        17.3663913802        7.6860022121       11.2100975616
  H        18.5150602218        5.8185236887       10.0103390814
  H        16.7538057901        5.7397402217       14.7715599743
  H        44.8275043295       32.1402567596       11.9775467852
  H        45.9367862985       30.3414223866       13.3069408549
  H        43.6832761331       27.3780522860       11.1516718003
  H        42.6005667034       29.1899370518        9.8090131842
  H        44.2303383634       29.4367404047       14.7690133509
  H        14.8514567973        8.5464828775       11.3633275571
  H        44.8994417471       32.2341426859        3.9313197729
  H        46.0242876300       30.4131385448        2.6518239388
  H        43.7647370987       27.4840910538        4.8465020629
  H        42.6469413068       29.3178048808        6.1255950944
  H        44.2685555810       29.4705478604        1.2182584934
  H        35.0151896759       26.6239898922        4.6449619470
  H        36.6053849306       35.1341178171        8.1807624044
  H        16.1436883115        3.0130061988        3.9040297432
  H        14.9741705715        4.8564088076        2.6883148196
  H        17.3961874875        7.7472683873        4.7552003717
  H        18.5432370774        5.8934184063        5.9827588173
  H        16.7648695932        5.7556524398        1.2192751517
  H        36.2787786553       34.4824105190        6.2730188759
  H        36.3813575593       34.2089204448        9.4993794307
  H        40.5797292432       33.2022683460        5.1536481633
  H        17.4711789077        1.9475168992        7.9741601350
  H        29.1163724544       19.2896637911       12.5670047756
  H        29.6155464828       19.6178525129        3.5718884843
  H        30.6188836861       15.6924855100        3.7408069967
  H        31.3670221295       15.6150493109       12.6507984477
  H        28.5836027083       17.8501277033       14.9900421949
  H        29.8032312973       15.4930577243       14.8086822707
  H        31.7302619353       19.9666574610        1.8288675407
  H        32.9769227989       17.6520924075        1.6185727648
  H        32.6465879673       18.7338290630       15.6484294155
  H        18.8552376544        0.8693953979       12.3354218508
  H        40.5280227808       35.2289572529        3.9520031970
  H        42.3244465100       34.4194524002        3.5900213366
  H        22.0879258995        0.6921758502       12.3515219959
  H        11.5971924611       18.7124325019       12.3821716685
  H        52.2652296118       18.4310874901        3.6776940023
  H        49.2551066728       16.4768031680        3.5844734477
  H        10.1498683609       15.7982579634       12.2929049079
  H        50.8502609396       17.6925447061        3.9541527231
  H        10.0459695431       17.3946012494       12.0518984747
  H        20.2171986611        0.0026928346       12.0416384073
  H        39.1836753586       36.1245367406        3.6867035761
 Ni        31.0686874297       17.8962160832        2.9989862751
 Ni        31.3308539418       16.6118182587        0.3301199482
 Ni        30.2684960547       18.8974510179        0.1692736255
 Ni        30.2240914799       17.4474601726       13.4027284625
  O        10.6498927599       14.3651282140        5.4858354882
  O        12.6131523593       14.6575356445        6.5838852655
  O        49.1477219507       16.8458680131        7.9897238706
  O        50.3502575366       20.9358220231        5.6479900215
  O        48.3485100925       20.5933165727        6.6659193843
  O        11.0515701329       17.0537816575        6.5007297690
  O        50.3209504792       20.8816751081       10.4068628683
  O        48.3466956489       20.5867128466        9.3271191983
  O        49.5436088679       18.2483757868       10.0681798018
  O        12.3590576710       18.6245701289        7.9996803552
  O        48.6931823378       14.1486946784        6.7512466428
  O         8.2098525053       14.2104832577        9.3225703036
  O        10.7353469677       14.5067543211       10.6643233528
  O        12.5718269545       14.5828087791        9.3284900787
  O        22.8444545252        2.0425637232        5.4873516484
  O        21.6059811626        3.5924541988        6.5892023966
  O        42.0582018881       34.1373628335        7.9788535905
  O        37.9811688621       33.1360244917        5.5722539337
  O        39.2173266887       31.5748836157        6.6658989421
  O        20.3084282675        1.0395796533        6.5021659058
  O        38.0245015625       33.1853338209       10.4156209484
  O        39.2184853951       31.5830341390        9.3272988994
  O        40.6522889611       33.7693030935       10.0600957592
  O        18.2556913854        1.3761005793        7.9967909804
  O        44.6222209147       35.1005366893        6.7587303548
  O        24.2054494279       -0.0000214484        9.3207434788
  O        22.7529254521        2.0570895005       10.5835457116
  O        21.6246548527        3.5961233343        9.3430174848
  O        27.4962401062       18.7551938635        5.5005568474
  O        26.7647400858       16.9338496590        6.6541055534
  O        30.6599673686       19.4027635416        8.0742511376
  O        33.5806775221       16.2793907369        5.6678430153
  O        34.2719799462       18.1682986293        6.7400185889
  O        29.5682170410       17.0625530511        6.5877337409
  O        33.5498927743       16.3392826572       10.4199812491
  O        34.2985985090       18.2369625082        9.4081099197
  O        31.6498141417       18.3127625003       10.1637178604
  O        30.3179754159       15.1521641492        8.0907866661
  O        28.5534083738       21.0317136122        6.9024616968
  O        28.5161933047       20.9526522941        9.4174401012
  O        27.4602450461       18.6801730464       10.6604589653
  O        26.6941995748       16.9301966269        9.4150340359
  O        13.1485826817       18.6930047716       10.5873291347
  O        13.9195364352       16.9163117355        9.4051954449
  O        50.5960160134       19.3501133637        8.0204001231
  O        47.6824512249       16.3272191963       10.4174508824
  O        46.9507343031       18.1757054897        9.3251347185
  O        11.0697391038       17.0154974137        9.4895976402
  O        47.6747498155       16.3361482344        5.6522135167
  O        46.9259369890       18.2358866694        6.6637650059
  O        49.5685350408       18.3176253884        5.9822537649
  O        10.3185775764       15.1002161876        7.9970512526
  O        52.6707516382       21.0278790575        9.2418108780
  O        12.1468180460       20.8911731868        6.6732663279
  O        13.1080797786       18.6136787831        5.3256712754
  O        13.9573886696       16.9871562125        6.6652588100
  O        29.9940137048       14.4417165498       10.7302037580
  O        28.0889942737       14.6534750951        9.4959113548
  O        32.0764424337       16.8613966878        8.0916761596
  O        30.9633279808       20.9478065012       10.4135543506
  O        32.9449045620       20.6020727384        9.3401802082
  O        29.5653891824       17.0747501540        9.5784230599
  O        30.8507296639       20.8898125186        5.6589309871
  O        32.8701292006       20.5864686182        6.6647677560
  O        31.6843167980       18.2510144479        6.0100648739
  O        28.2893005005       18.6744235220        8.0823112716
  O        32.4893175341       14.2155758019        9.3305765628
  O        32.4047027539       14.2126536120        6.8274098290
  O        29.9193123698       14.4409022851        5.4864256674
  O        28.0409569582       14.5857744482        6.7506069816
  O        17.8892703482        1.9666030997       10.6627758874
  O        18.9562688124        3.5271028706        9.4079421763
  O        39.1685930577       34.1386773271        7.9971700964
  O        43.2801599098       33.0589135110       10.3317026603
  O        42.0343523865       31.5064720576        9.2415993362
  O        20.3177943664        1.0368632066        9.4799399761
  O        43.2760661336       33.1826204165        5.5748994402
  O        42.0052193337       31.5841431655        6.5829843413
  O        40.5788834100       33.7749361111        5.9357748450
  O        22.3674028659        1.3846888604        7.9979027994
  O        36.6728385051       35.0997504347        9.2333642081
  O        16.4457131346        0.0641824250        6.6682246318
  O        17.9365357738        2.0433246677        5.3264269609
  O        18.9190792975        3.5931069583        6.6659313553
  O        29.8208252814       18.8231433461        4.0951897436
  O        29.8248924080       18.8224669583       12.0865439630
  O        31.1334603411       16.4035055893        4.1653808026
  O        31.2165919438       16.4321686555       12.1397628275
  O        32.3121826742       16.9926443258        1.8929485024
  O        30.5854526590       16.0528399596       14.6670813260
  O        31.8644757697       18.2461467139       15.3301299094
  O        30.9246735671       19.4203415967        1.8221039034
  O        29.2678400869       18.4652080027       14.6589404663
  O        39.4567273816       35.2437761655        4.0020262706
  O        19.1431983219        0.0050927379       11.9903361763
  O        41.9695122604       35.1728001667        4.0870474695
  O        21.6914818587       -0.0693573336       11.8960521133
  O        51.3652670801       18.6143186849        4.0054348151
  O        10.7512358936       18.7471088658       11.9049133992
  O        50.0795690120       16.4128167623        4.0917167338
  O         9.5241416549       16.4831643980       11.9911914220
 Zr         9.2969115693       16.0527799360        6.1823505945
 Zr        49.8365471272       16.0067189923        9.7464554589
 Zr        22.0735745888        0.0304008705        6.1886770052
 Zr        42.4612617680       35.1538775066        9.8007955276
 Zr        29.5968745978       19.0757006506        6.2910804260
 Zr        29.5813676012       19.1626948974        9.8863092188
 Zr        11.0382814230       19.0518110873        9.8277368211
 Zr        11.0441818536       19.1546494855        6.2510472031
 Zr        31.3271574189       16.1015419585        9.9040299910
 Zr        31.3887423661       16.0110033376        6.2941027205
 Zr        18.6016598674       -0.0006644094        9.7636267987
 Zr        18.5069049327       -0.0072638845        6.2137830581
 Zr        12.3026073507       16.3235643263        7.9902900868
 Zr        48.6163435807       18.8328152218        8.0102062361
 Zr        20.3156985397        2.4743773254        7.9904128750
 Zr        40.6437872067       32.6875648496        7.9780310226
 Zr        28.3375902565       16.3395042830        8.0791856721
 Zr        32.6195024329       18.8319250861        8.0569099386
  H        30.8434571488       15.4136005909        0.9882301719
