     571
 i =      250, E =     -4761.6597580364
  C        11.8588039798       14.0535674518        5.7415177716
  C        12.4562928827       12.8905931091        5.0232353538
  C        11.7044301889       12.1713640620        4.0819394652
  C        12.2807682625       11.1091036800        3.3896387561
  C        13.6214995392       10.7396678250        3.6170184827
  C        14.3549073843       11.4436119977        4.5900219134
  C        13.7820435215       12.5086525304        5.2814630846
  C        14.2609822672        9.6489417246        2.8436433886
  C        14.2562221828        9.6567731354        1.4219412231
  C        13.7429395640       10.7588656406        0.6680692788
  C        49.1269379777       21.2331496176        5.8796368509
  C        48.5501404872       22.4011987311        5.1525614401
  C        49.3001935805       23.0686096522        4.1716726211
  C        48.7332274369       24.1077375344        3.4384550393
  C        47.4026753288       24.5092876663        3.6670772440
  C        46.6716748379       23.8602812819        4.6804536987
  C        47.2341636100       22.8153851681        5.4097979056
  C        46.7723608256       25.5869780300        2.8698343471
  C        46.7611292167       25.5572900621        1.4480770375
  C        47.2609830616       24.4421533695        0.7045945468
  C        14.8602115353        8.5704559658        0.7086862277
  C        14.8918487038        8.5970643337        3.5203158982
  C        49.1132370123       21.2033483428       10.1453528290
  C        48.5277540481       22.3646945279       10.8726946885
  C        49.2669526493       23.0254272934       11.8655912520
  C        48.6906084256       24.0600164827       12.5970286059
  C        47.3601928808       24.4567260679       12.3587885121
  C        46.6398031703       23.8117991443       11.3352756801
  C        47.2133751174       22.7758596694       10.6035406279
  C        46.7216867741       25.5317230465       13.1497526963
  C        46.7332541103       25.5280495974       14.5714574500
  C        47.2486587341       24.4288173638       15.3278353378
  C        40.6345237705       17.1533399389       15.3236216383
  C        40.6573381093       17.1762446304       12.5144712797
  C        11.8831022583       14.0865769470       10.2855132403
  C        12.4725295431       12.9108815360       10.9898706417
  C        11.7148482398       12.1773267174       11.9155654366
  C        12.2814687600       11.0948877876       12.5839905077
  C        13.6204436431       10.7215144906       12.3525137606
  C        14.3586368228       11.4374940179       11.3922007822
  C        13.7931719538       12.5186415769       10.7194895226
  C        14.2539916725        9.6246958071       13.1228972078
  C        14.2525238901        9.6445154561       14.5447371438
  C        13.7424719588       10.7533767014       15.2918146173
  C        22.5133937422        3.2445824909        5.7533485424
  C        23.2316285083        4.3482133433        5.0549660493
  C        24.2286678773        4.0646691356        4.1097098185
  C        24.8601011561        5.1016895632        3.4280119112
  C        24.5106864334        6.4449505911        3.6711610486
  C        23.5419575917        6.7200181326        4.6536277455
  C        22.9057385362        5.6846950410        5.3338264103
  C        25.1214330123        7.5484742078        2.8948620137
  C        25.0940753696        7.5402371026        1.4733194319
  C        24.3858472134        6.5442774805        0.7284247477
  C        38.2988804330       31.9281327615        5.8518140727
  C        37.5586707339       30.8388980847        5.1494812823
  C        36.5928648238       31.1455296492        4.1785037274
  C        35.9639848607       30.1274096075        3.4668931640
  C        36.2856772431       28.7764500779        3.7032524820
  C        37.2210055735       28.4770811391        4.7117726755
  C        37.8538385134       29.4942858398        5.4227245143
  C        35.6761513500       27.6885245975        2.9036316278
  C        35.7153812640       27.7049878107        1.4819252799
  C        36.4298828575       28.7051112452        0.7495276904
  C        25.7220745631        8.6065375365        0.7521694018
  C        25.7221269072        8.6222563094        3.5643838656
  C        38.3309170109       31.9619953192       10.1596554842
  C        37.6136868608       30.8898403894       10.9094511526
  C        36.6822571715       31.2016036382       11.9117840307
  C        36.0714149132       30.1859062054       12.6451031032
  C        36.3772012292       28.8322838602       12.3996370420
  C        37.2897761897       28.5303074333       11.3702232303
  C        37.9026151428       29.5426477549       10.6382375074
  C        35.7605340661       27.7351697073       13.1811965386
  C        35.7581749266       27.7291296765       14.6036192101
  C        36.4491765403       28.7173901544       15.3728918386
  C        46.1352560635       26.6207076568       15.2815748285
  C        46.0878581922       26.5801442595       12.4736850530
  C        22.4611813518        3.2557510153       10.2579512317
  C        23.1559184956        4.3632103235       10.9814432289
  C        24.1574813876        4.0749097407       11.9222341458
  C        24.7870306301        5.1034624937       12.6188906402
  C        24.4354264280        6.4501394271       12.3974289071
  C        23.4567228617        6.7316518468       11.4253694589
  C        22.8224101549        5.7033096135       10.7291583992
  C        25.0699963701        7.5462446152       13.1711087118
  C        25.0680445367        7.5384798311       14.5939240779
  C        24.3717654812        6.5444152287       15.3516136960
  C        26.6266292375       17.8641086405        5.7825683814
  C        25.3183421271       17.9101801444        5.0583445490
  C        25.0611311123       18.9050521840        4.1019608034
  C        23.8476020208       18.9278534190        3.4167794786
  C        22.8542798379       17.9584950977        3.6648423320
  C        23.1079027096       16.9862363082        4.6509280856
  C        24.3231595223       16.9585696707        5.3341534455
  C        21.5807180401       17.9453109728        2.9002498258
  C        21.5796875747       17.9248498468        1.4773759717
  C        22.7848461326       17.8032615415        0.7158105767
  C        34.4356576615       17.1990141709        5.9201521148
  C        35.7258088840       17.1524196388        5.1721908909
  C        35.9091465271       16.2150551417        4.1440003514
  C        37.0915125974       16.2026553376        3.4091573478
  C        38.1189381456       17.1275735785        3.6801181117
  C        37.9351001404       18.0460060011        4.7316617400
  C        36.7517595224       18.0630265586        5.4656826641
  C        39.3739373309       17.1394573965        2.8958349894
  C        39.3731093734       17.1692158465        1.4742332495
  C        38.1691174795       17.3059092879        0.7138295354
  C        20.3325792967       17.9419548378        0.7692732286
  C        20.3556582080       17.9469304778        3.5826141888
  C        34.4763330495       17.2444413915       10.1829524374
  C        35.7802429118       17.1705457952       10.9038885848
  C        35.9904626247       16.1986291899       11.8933670339
  C        37.1760670135       16.1860848176       12.6225675019
  C        38.1798106085       17.1439209827       12.3802165544
  C        37.9764841613       18.0892060604       11.3576417590
  C        36.7883555354       18.1077513615       10.6324053081
  C        39.4253649442       17.1676319345       13.1769214001
  C        39.3994180589       17.1826472666       14.5977055733
  C        38.1813563721       17.3090270930       15.3371359758
  C        35.1169811754       26.6529507776       15.3028954700
  C        35.1718828976       26.6662552990       12.4933747921
  C        26.5699559508       17.8284301965       10.3240490007
  C        25.2533401718       17.8783178315       11.0267773105
  C        24.9862910150       18.8890940294       11.9625847578
  C        23.7695400402       18.9147943727       12.6384106125
  C        22.7896196404       17.9303269750       12.4010042655
  C        23.0497722068       16.9455418753       11.4308084882
  C        24.2676767586       16.9172926947       10.7539013563
  C        21.5271416965       17.9124149180       13.1762997887
  C        21.5523693442       17.9072039065       14.5979622261
  C        22.7715467259       17.7952718528       15.3392384395
  C        14.0466721324       17.8288467549       10.2892549731
  C        15.3503492415       17.8862471756       11.0154308156
  C        15.6056287271       18.8895722017       11.9633867663
  C        16.8140720671       18.9113620964       12.6570696589
  C        17.8017450148       17.9326420584       12.4253125176
  C        17.5510667306       16.9534082180       11.4454343589
  C        16.3420890033       16.9270277478       10.7531718988
  C        19.0710108999       17.9177673130       13.1940240087
  C        19.0708740846       17.9179458482       14.6165576666
  C        17.8644907684       17.8192234914       15.3787356813
  C        46.8071315708       17.2203890997       10.1599748176
  C        45.5199175179       17.1646000308       10.9093718585
  C        45.3145845949       16.1922261966       11.9001009893
  C        44.1350415387       16.1815065703       12.6395279229
  C        43.1322665362       17.1431976090       12.4088826255
  C        43.3352648056       18.0956187730       11.3922081971
  C        44.5154126128       18.1104268882       10.6541200081
  C        41.8794251649       17.1605400491       13.1963057829
  C        41.8827794486       17.1618241938       14.6179392106
  C        43.0904765737       17.2517638919       15.3790827679
  C        20.3182282851       17.9317224906       15.3240129055
  C        20.2946495974       17.8976708159       12.5108379750
  C        46.7850048855       17.2301831935        5.8908300163
  C        45.4799252353       17.1230852429        5.1791777247
  C        45.2615318500       16.1290370237        4.2134317655
  C        44.0726521563       16.1047436157        3.4884704169
  C        43.0730283811       17.0710628203        3.7130332906
  C        43.2806853108       18.0327393570        4.7193310005
  C        44.4708644060       18.0639306893        5.4387785646
  C        41.8284229133       17.1012397502        2.9139998417
  C        41.8568496514       17.1302540130        1.4934635025
  C        43.0780688952       17.2342273763        0.7556944138
  C        46.1530897661       26.6371644980        0.7263365667
  C        46.1625839263       26.6561780755        3.5359765055
  C        14.0465091553       17.8326474443        5.7091677865
  C        15.3682689110       17.9092645622        5.0202125786
  C        15.6409836737       18.9251412700        4.0917854432
  C        16.8704112067       18.9644470990        3.4377871609
  C        17.8553619088       17.9870635501        3.6859093557
  C        17.5896454191       17.0005512896        4.6530946119
  C        16.3622025650       16.9607204929        5.3106938590
  C        19.1226350728       17.9637635186        2.9164092051
  C        19.0977699654       17.9401711448        1.4948311073
  C        17.8776303265       17.8292321794        0.7548979239
  C        28.8106590821       14.0902727599       10.3902639755
  C        28.2005998460       12.9129348561       11.0746297661
  C        28.9330271194       12.1580693355       12.0027610455
  C        28.3364989454       11.0819574812       12.6551453668
  C        26.9936297302       10.7362828540       12.4026181781
  C        26.2825564985       11.4704596032       11.4365491528
  C        26.8769081820       12.5470199589       10.7828277759
  C        26.3280374565        9.6553243508       13.1658985651
  C        26.3254394418        9.6778019791       14.5871069556
  C        26.8419209289       10.7852816427       15.3319929170
  C        32.1774801913       21.2437279305       10.1461476120
  C        32.7693048074       22.4142112637       10.8632734861
  C        32.0146810009       23.0997426962       11.8278519477
  C        32.5821784082       24.1407393503       12.5568487094
  C        33.9205232088       24.5242627489       12.3433065060
  C        34.6578222063       23.8575773981       11.3465379045
  C        34.0922822026       22.8116514593       10.6188869758
  C        34.5465123682       25.5992008307       13.1477624394
  C        34.5258095697       25.5723559346       14.5694905164
  C        34.0038255147       24.4609759325       15.3040108349
  C        25.7129782023        8.6022296341       15.3072287509
  C        25.6843603684        8.6083174808       12.4937896083
  C        32.0794049242       21.2017308173        5.8776539604
  C        32.6506427048       22.3613966182        5.1279266733
  C        31.9112840468       23.0219036142        4.1344481062
  C        32.4839681576       24.0618667401        3.4034345204
  C        33.8097965863       24.4725761719        3.6475493931
  C        34.5310282630       23.8248078643        4.6688945992
  C        33.9637173208       22.7809195063        5.3944500707
  C        34.4493865787       25.5600611722        2.8696510742
  C        34.4747591683       25.5530785459        1.4477565773
  C        33.9784405880       24.4524861428        0.6804959002
  C        40.6208752734       17.1417083092        0.7679113072
  C        40.5966551957       17.1214682669        3.5768668800
  C        28.7482862453       14.0710563627        5.8138362319
  C        28.1454456607       12.9209516003        5.0760323265
  C        28.8919180774       12.2119681757        4.1221838474
  C        28.3154539576       11.1524777295        3.4249142715
  C        26.9778802154       10.7745834589        3.6579150052
  C        26.2486946499       11.4704957672        4.6403288726
  C        26.8227029960       12.5310381387        5.3383725154
  C        26.3391688721        9.6812678925        2.8858313208
  C        26.3327167529        9.6911651865        1.4639582618
  C        26.8432366437       10.7930555426        0.7081118669
  C        18.1354427931        3.1811404618       10.3171456358
  C        17.4062467215        4.2783065685       11.0157496889
  C        16.3905496154        3.9999895110       11.9433358646
  C        15.7428670476        5.0399914420       12.6068036181
  C        16.0948132125        6.3837236488       12.3671286812
  C        17.0841483503        6.6531992064       11.4032930183
  C        17.7332210944        5.6158420482       10.7382546735
  C        15.4704679072        7.4913920687       13.1301758000
  C        15.4855821671        7.4905578591       14.5518874874
  C        16.1871794802        6.4969806207       15.3050656810
  C        42.9459152471       31.8595723996       10.0728263563
  C        43.6462583591       30.7718829703       10.8167627790
  C        44.5913969886       31.0932344456       11.8032056106
  C        45.1971059077       30.0876944321       12.5508795868
  C        44.8710666639       28.7345750224       12.3357243058
  C        43.9457883821       28.4202215781       11.3219926014
  C        43.3369826496       29.4253472965       10.5739285049
  C        45.4885638569       27.6552498885       13.1389354219
  C        45.4926391975       27.6808763167       14.5606324454
  C        44.8055977653       28.6889362308       15.3072868970
  C        14.8565205571        8.5629832931       15.2642579474
  C        14.8753065622        8.5632406497       12.4515961311
  C        42.9465441431       31.9617152832        5.8089926907
  C        43.6919043036       30.8855962727        5.0956815054
  C        44.6560610008       31.1915244126        4.1229470453
  C        45.2776321495       30.1719371993        3.4052680987
  C        44.9542637892       28.8215706245        3.6432401989
  C        44.0213736553       28.5239136984        4.6545919681
  C        43.3930620231       29.5406658471        5.3667382150
  C        45.5631822015       27.7241491685        2.8579491863
  C        45.5332566779       27.7173891833        1.4366495100
  C        44.8269222670       28.7076065734        0.6836830234
  C        35.0931027557       26.6421158530        0.7482226076
  C        35.0613181462       26.6151435232        3.5586904191
  C        18.1486598288        3.2471129716        5.7065400640
  C        17.4300733000        4.3438517774        4.9973482732
  C        16.4148757800        4.0525769979        4.0737372665
  C        15.7665588229        5.0832050024        3.3983899465
  C        16.1212002002        6.4284577314        3.6211562343
  C        17.1125929048        6.7118420613        4.5784095872
  C        17.7602896760        5.6829319130        5.2581487521
  C        15.4906451947        7.5241131450        2.8487144841
  C        15.4964893554        7.5074000110        1.4275824671
  C        16.1933442573        6.5057653807        0.6808801584
  H        10.6721704259       12.4652213209        3.9052272879
  H        11.6943695456       10.5503619441        2.6633845447
  H        15.3921259639       11.1694262386        4.7713165704
  H        14.3517210252       13.0722490039        6.0164467376
  H        13.3758555521       11.6309394886        1.2014201903
  H        50.3229330227       22.7486175201        3.9870055564
  H        49.3197581258       24.6231004325        2.6809751390
  H        45.6421645355       24.1610035215        4.8635946560
  H        46.6631807607       22.2899657215        6.1717916171
  H        47.6296137486       23.5758369415        1.2463193006
  H        14.8723387546        8.5884398838        4.6086290299
  H        50.2870264273       22.7026203552       12.0604534563
  H        49.2690183685       24.5755201518       13.3604874235
  H        45.6104130479       24.1090544551       11.1461708167
  H        46.6526414068       22.2536437577        9.8319479570
  H        47.6074879707       23.5517277090       14.7969241379
  H        40.6656867570       17.1389479493       11.4268511447
  H        48.6870554954       14.0949590940        7.8000160633
  H        10.6812418951       12.4661168237       12.0926518405
  H        11.6895577334       10.5241957232       13.2963510753
  H        15.3942517783       11.1600221121       11.2066772691
  H        14.3657036581       13.0883848796        9.9913982805
  H        13.3756313710       11.6219839373       14.7531765142
  H        47.9302758925       14.2181674148        9.7109515102
  H        47.7800912883       14.3735304856        6.4951012714
  H        49.0846181991       18.5526345970       10.8676446064
  H        10.4161750941       14.1342594647        7.9986921462
  H        24.4863831981        3.0251864154        3.9194586128
  H        25.6331428085        4.8811904619        2.6950591236
  H        23.2646580278        7.7540016849        4.8481025613
  H        22.1357063282        5.8883098124        6.0739545021
  H        23.8218369944        5.7902910065        1.2697172786
  H        36.3599820812       32.1896002121        3.9829728317
  H        35.2160113665       30.3701302811        2.7152380115
  H        37.4777487654       27.4370744719        4.9025236978
  H        38.6016421596       29.2698581239        6.1797371243
  H        36.9937823071       29.4527256090        1.2997070333
  H        25.7546502998        8.6078266398        4.6523310399
  H        36.4564840575       32.2464292567       12.1127842383
  H        35.3424222201       30.4342216468       13.4133357390
  H        37.5395433213       27.4895845074       11.1745736190
  H        38.6280633796       29.3138186965        9.8613110111
  H        37.0288948736       29.4741261954       14.8520344405
  H        46.1094994318       26.5876055146       11.3856539603
  H        44.6684414194       35.1162580880        7.8139618944
  H        24.4335569672        3.0361516436       12.0887306062
  H        25.5675610900        4.8728851456       13.3408048762
  H        23.1736993790        7.7667707941       11.2452711286
  H        22.0511650846        5.9180888083        9.9930457205
  H        23.7963328693        5.7910878766       14.8214228903
  H        44.9543308665       34.3907794283        9.6953656151
  H        44.9023585669       34.2070427587        6.4905920497
  H        40.6669173108       33.2097226906       10.8534144400
  H        23.1505668933        1.9579644034        8.0053766139
  H        25.8260258126       19.6541481680        3.9105613253
  H        23.6538759456       19.7060887662        2.6816156001
  H        22.3534780140       16.2283492939        4.8522024010
  H        24.5286341913       16.1940835874        6.0798587919
  H        23.7262152891       17.6850067417        1.2446032688
  H        35.1065555521       15.5132545105        3.9282759115
  H        37.2345537691       15.4661068196        2.6215534462
  H        38.7201925215       18.7684961630        4.9450155342
  H        36.5932859956       18.7854750233        6.2630639728
  H        37.2299890203       17.4345105489        1.2440400337
  H        20.3629301258       17.9864285055        4.6705163509
  H        35.2055984751       15.4711572126       12.0870275291
  H        37.3388255664       15.4298597311       13.3874193854
  H        38.7462870843       18.8338418871       11.1658088439
  H        36.6082130447       18.8555129563        9.8636628806
  H        37.2518286689       17.4388865446       14.7904233789
  H        35.1541865939       26.6918906075       11.4054655527
  H        28.5072295010       21.0756752278        7.9726635369
  H        25.7450409083       19.6473113306       12.1422894401
  H        23.5628420540       19.7021983651       13.3600345946
  H        22.3011628614       16.1790343410       11.2410438810
  H        24.4847105601       16.1446999026       10.0200929579
  H        23.7027185463       17.6712423324       14.7943952832
  H        29.0090244251       21.7178869207        9.7590936049
  H        29.1637335933       21.7393870922        6.6297857690
  H        32.1125383036       18.5659837592       10.9812279788
  H        27.4024787068       19.0708784296        8.0823003947
  H        14.8465883121       19.6481408414       12.1410033276
  H        17.0082361068       19.6958702009       13.3853329595
  H        18.3030697850       16.1898353835       11.2572626499
  H        16.1374196271       16.1577498549       10.0123556151
  H        16.9216870653       17.7021787360       14.8523476188
  H        46.0961454648       15.4586005952       12.0832591120
  H        43.9748774399       15.4196456942       13.3992291907
  H        42.5683961251       18.8458628539       11.2110995629
  H        44.6897872849       18.8596214659        9.8854721841
  H        44.0334187438       17.3653151688       14.8518747357
  H        20.2877330588       17.9245138823       11.4226385202
  H        46.0395080014       15.3910631332        4.0315228210
  H        43.9062376740       15.3345276154        2.7384925736
  H        42.5130402738       18.7823715373        4.8996386341
  H        44.6535999200       18.8264137076        6.1919306031
  H        44.0116342847       17.3330426424        1.3019760783
  H        46.1997207290       26.6828047769        4.6234127592
  H        52.7412516803       21.0626222672        8.1946789526
  H        14.8795192058       19.6777041023        3.8991992122
  H        17.0805429604       19.7552104355        2.7208046081
  H        18.3413099870       16.2396578638        4.8530325266
  H        16.1422538913       16.1858792370        6.0410719573
  H        16.9446582291       17.7198299891        1.2995673275
  H        52.3226310453       21.6733194128        6.2942065252
  H        52.0132487649       21.7020654654        9.4955727818
  H        49.0676265757       18.6073646512        5.2039906849
  H        13.2478495615       19.0160345082        7.9774954333
  H        29.9680507160       12.4288817499       12.1986858588
  H        28.9059068136       10.4961991586       13.3735977498
  H        25.2448752865       11.2131068700       11.2343041378
  H        26.3256821476       13.1352969917       10.0532871073
  H        27.2113531830       11.6508023114       14.7903239838
  H        30.9866093686       22.7905767027       12.0009983018
  H        31.9910036527       24.6719843102       13.2996635305
  H        35.6935807340       24.1438831617       11.1754060101
  H        34.6673788500       22.2715425756        9.8701756970
  H        33.6459913092       23.5958979720       14.7531651154
  H        25.7076421862        8.5918941475       11.4055787604
  H        30.8882350711       22.7055722095        3.9432395768
  H        31.9019243465       24.5755637784        2.6412210204
  H        35.5572642060       24.1291227494        4.8642593260
  H        34.5269093142       22.2603727444        6.1654034020
  H        33.6009568199       23.5803138078        1.2063185492
  H        40.5878651785       17.0695818345        4.6639196631
  H        32.5141743528       14.1498273645        8.2542853390
  H        29.9257529578       12.5013229537        3.9466784837
  H        28.9016353312       10.5991631594        2.6943191593
  H        25.2136547396       11.1913445950        4.8265803238
  H        26.2564747469       13.0841776570        6.0839918390
  H        27.2126949946       11.6647403253        1.2403861548
  H        33.2957437355       14.1860173545        6.4383388819
  H        33.4086379834       14.4090025660        9.6033437869
  H        32.1196195256       18.5335737196        5.2305396437
  H        30.2288457829       14.1910574839        8.0772483593
  H        16.1184322425        2.9635070691       12.1297479213
  H        14.9534284469        4.8206685022       13.3224888563
  H        17.3666538146        7.6860555017       11.2101828517
  H        18.5152674123        5.8185481856       10.0104312914
  H        16.7539379618        5.7397698465       14.7716043033
  H        44.8274422434       32.1403325698       11.9776372348
  H        45.9367150812       30.3415109634       13.3070557882
  H        43.6836174190       27.3780919939       11.1514405921
  H        42.6009101788       29.1899756596        9.8087511988
  H        44.2303737050       29.4368167593       14.7690047108
  H        14.8517588496        8.5466527293       11.3633709745
  H        44.8993465178       32.2342165513        3.9312177551
  H        46.0242567792       30.4132189401        2.6517662537
  H        43.7649623906       27.4841340819        4.8466270187
  H        42.6470826690       29.3178430998        6.1256846972
  H        44.2685742900       29.4706282899        1.2182438590
  H        35.0145480081       26.6253662696        4.6460533112
  H        36.6053088600       35.1341722189        8.1806039803
  H        16.1437763746        3.0130142677        3.9039905259
  H        14.9742355298        4.8564104211        2.6882874722
  H        17.3961483730        7.7473039378        4.7552776793
  H        18.5432357357        5.8934677490        5.9828123382
  H        16.7649346828        5.7556412208        1.2193141058
  H        36.2787623290       34.4825282810        6.2729476363
  H        36.3811597640       34.2090253668        9.4992991406
  H        40.5799580592       33.2025229459        5.1536164748
  H        17.4711013022        1.9476802094        7.9740499631
  H        29.0424496878       19.2848816753       12.5667875043
  H        29.7745816564       19.6542568743        3.5974592109
  H        30.5803312633       15.7679805041        3.7854933406
  H        31.3109378327       15.5666682855       12.5559299250
  H        28.3327537610       17.9290094655       14.9386401140
  H        29.7663347109       15.4122746287       14.9164194111
  H        31.8396999737       19.9375581935        1.7813047305
  H        32.9825095707       17.7701015740        1.4669904096
  H        32.5477355468       18.6769390421       14.8404529034
  H        18.8533919738        0.8689488231       12.3351757914
  H        40.5283632723       35.2289019368        3.9519344474
  H        42.3245725483       34.4192457885        3.5900024295
  H        22.0875106554        0.6922214143       12.3516102033
  H        11.5969572592       18.7130229495       12.3824765835
  H        52.2649047220       18.4311724351        3.6771787211
  H        49.2552899496       16.4767320150        3.5843909638
  H        10.1509297351       15.7981887979       12.2925481498
  H        50.8501022396       17.6924059488        3.9542197397
  H        10.0465479012       17.3945506414       12.0519142944
  H        20.2148240672        0.0022858671       12.0419404566
  H        39.1841095032       36.1249022636        3.6867365820
 Ni        31.1593623698       17.9339190829        2.9982700418
 Ni        31.3664650393       16.5946450225        0.2489452046
 Ni        30.2638851183       18.7495524112        0.2470164248
 Ni        30.4354997785       17.5733796784       13.4093282809
  O        10.6499503478       14.3650589414        5.4858437633
  O        12.6131802555       14.6575018961        6.5839050100
  O        49.1480643862       16.8458345562        7.9896840205
  O        50.3502993563       20.9358865392        5.6480109836
  O        48.3485842634       20.5934024860        6.6658926861
  O        11.0518279407       17.0537511019        6.5007365120
  O        50.3209817362       20.8817131954       10.4068944361
  O        48.3467174434       20.5868169172        9.3271190554
  O        49.5438839607       18.2484044843       10.0682088419
  O        12.3592108228       18.6246190667        7.9996403892
  O        48.6932766887       14.1485622613        6.7512984071
  O         8.2099348009       14.2103772873        9.3225406860
  O        10.7354217538       14.5067250371       10.6642991113
  O        12.5718740796       14.5828033987        9.3284834481
  O        22.8445520888        2.0428562844        5.4872817697
  O        21.6061360533        3.5925907006        6.5891381949
  O        42.0582137185       34.1374485048        7.9789173120
  O        37.9812089000       33.1363394349        5.5723162966
  O        39.2173831939       31.5750040596        6.6660046551
  O        20.3084863358        1.0396889810        6.5021740668
  O        38.0246355347       33.1856396082       10.4154913085
  O        39.2185629281       31.5831101978        9.3272575061
  O        40.6522626646       33.7693948503       10.0601116990
  O        18.2556014950        1.3762431534        7.9967267614
  O        44.6222207173       35.1005640461        6.7587883204
  O        24.2054193857        0.0000078790        9.3207450205
  O        22.7528941433        2.0573447292       10.5836897504
  O        21.6246526857        3.5961841146        9.3430305888
  O        27.5015647394       18.7545009810        5.4984536106
  O        26.7666002223       16.9344278117        6.6539578337
  O        30.6616264126       19.4044476473        8.0779265257
  O        33.5834932150       16.2805715192        5.6681412268
  O        34.2743924514       18.1705350216        6.7391881401
  O        29.5718798323       17.0619011648        6.5845368344
  O        33.6163259799       16.3292592599       10.4153334739
  O        34.3058274020       18.2461217347        9.4084370074
  O        31.6535629348       18.3137769976       10.1634260082
  O        30.3240174742       15.1576022704        8.0884504833
  O        28.5535290608       21.0316867479        6.9034081349
  O        28.5145780972       20.9545328698        9.4152302961
  O        27.4577114411       18.6792097633       10.6608443707
  O        26.6940029873       16.9294821724        9.4143329685
  O        13.1485084442       18.6929913960       10.5873653010
  O        13.9195263235       16.9163271030        9.4052272005
  O        50.5964356640       19.3502770307        8.0203008350
  O        47.6837926550       16.3269663815       10.4172834699
  O        46.9524424589       18.1760398201        9.3241220262
  O        11.0700233678       17.0153647876        9.4895995859
  O        47.6759580827       16.3355644479        5.6530402188
  O        46.9274475863       18.2357586655        6.6647637224
  O        49.5688789591       18.3177100617        5.9822667917
  O        10.3187522389       15.1001034449        7.9970954156
  O        52.6707788890       21.0278860903        9.2418098654
  O        12.1468364886       20.8911913159        6.6732528455
  O        13.1082937395       18.6136457407        5.3256425966
  O        13.9575064539       16.9871850816        6.6651937678
  O        29.9941789701       14.4423668509       10.7318856125
  O        28.0898576863       14.6534436404        9.4952800567
  O        32.1364152045       16.8531515104        8.0953284121
  O        30.9649139660       20.9519298346       10.4123205275
  O        32.9464417184       20.6055947254        9.3422169804
  O        29.5700346998       17.0754077646        9.5778769905
  O        30.8516145418       20.8904800002        5.6593618264
  O        32.8708760650       20.5876578314        6.6647981192
  O        31.6905369474       18.2543211598        6.0591707705
  O        28.2888815366       18.6745309261        8.0824148015
  O        32.4923502386       14.2148404908        9.3319211024
  O        32.4057825124       14.2115612238        6.8273618626
  O        29.9224477941       14.4494507355        5.4811640217
  O        28.0435455779       14.5859352353        6.7498242946
  O        17.8893056275        1.9666245264       10.6627794033
  O        18.9562910049        3.5271072973        9.4079352077
  O        39.1685706870       34.1387010886        7.9971023273
  O        43.2801593137       33.0589515334       10.3317257455
  O        42.0343536714       31.5064763764        9.2416347556
  O        20.3177805559        1.0369381980        9.4799652938
  O        43.2760790678       33.1826424571        5.5748843469
  O        42.0052322119       31.5841387031        6.5829701786
  O        40.5789238782       33.7750440201        5.9358393107
  O        22.3673867779        1.3847770609        7.9978987740
  O        36.6728099180       35.0997782432        9.2332529707
  O        16.4457437487        0.0642256030        6.6682266529
  O        17.9365547502        2.0433391762        5.3264521245
  O        18.9191228266        3.5931122414        6.6659327516
  O        29.9044773809       18.8246669441        4.0927831764
  O        29.7890111848       18.9048126991       12.0678197807
  O        31.2155295219       16.4105402390        4.1531340463
  O        31.3103749760       16.4102303299       12.0663024695
  O        32.3654648914       17.0745133777        1.7623580842
  O        30.5841278736       15.9006516177       14.7262713105
  O        31.7307989363       18.1694847339       14.9772220017
  O        31.0107923418       19.4331569824        1.8421028471
  O        29.1153081499       18.4703117809       14.7446470219
  O        39.4569667448       35.2440495465        4.0019607906
  O        19.1413242839        0.0044438338       11.9905002103
  O        41.9693541291       35.1724288491        4.0870615529
  O        21.6912162778       -0.0692508438       11.8959170228
  O        51.3650763044       18.6142851157        4.0053484457
  O        10.7511316740       18.7472226467       11.9049496311
  O        50.0796569930       16.4127887211        4.0917644607
  O         9.5249228257       16.4830078984       11.9912239523
 Zr         9.2973768837       16.0526831732        6.1825150734
 Zr        49.8368800554       16.0065393577        9.7463174215
 Zr        22.0736224261        0.0304781016        6.1887478249
 Zr        42.4612537343       35.1540565102        9.8010579475
 Zr        29.6052553163       19.0784588298        6.3038823901
 Zr        29.5759791052       19.1693158513        9.8939138295
 Zr        11.0386012732       19.0516714341        9.8276906590
 Zr        11.0445873397       19.1545708076        6.2507888381
 Zr        31.3474396779       16.1028427973        9.8993920572
 Zr        31.4045897621       16.0171775805        6.3052334954
 Zr        18.6015514388       -0.0005213780        9.7632073122
 Zr        18.5069985055       -0.0070400734        6.2136650629
 Zr        12.3029533793       16.3236395337        7.9902249159
 Zr        48.6173067682       18.8330473869        8.0100143306
 Zr        20.3157997373        2.4745495793        7.9903957139
 Zr        40.6439951675       32.6877274026        7.9780079679
 Zr        28.3434298742       16.3417359120        8.0823660635
 Zr        32.6286483685       18.8348012597        8.0655165222
  H        30.7098887924       15.6283155295        1.0912466886
