     570
 i =        9, E =     -4745.4846980609
  C        11.8586831337       14.0532828714        5.7421895372
  C        12.4564077154       12.8908113315        5.0233749221
  C        11.7048446360       12.1717929990        4.0817118530
  C        12.2808103994       11.1091794776        3.3895668601
  C        13.6216279233       10.7398369321        3.6168830668
  C        14.3548152831       11.4431486007        4.5904994220
  C        13.7818292535       12.5081564119        5.2817091872
  C        14.2610624923        9.6490399931        2.8435970756
  C        14.2559493391        9.6565723250        1.4219121213
  C        13.7433810977       10.7590149015        0.6680819770
  C        49.1269920640       21.2332581947        5.8798270740
  C        48.5503634996       22.4012359745        5.1525525932
  C        49.3002112653       23.0685700163        4.1714259747
  C        48.7332537839       24.1078549754        3.4385514260
  C        47.4025005961       24.5089192110        3.6669861039
  C        46.6717379926       23.8605045635        4.6810121405
  C        47.2343046778       22.8153205366        5.4099423841
  C        46.7734081290       25.5873707052        2.8698287748
  C        46.7603571059       25.5568832027        1.4481128836
  C        47.2613057577       24.4422146364        0.7047273249
  C        14.8609401566        8.5708705649        0.7085767361
  C        14.8918487950        8.5971280557        3.5202947924
  C        49.1134010684       21.2037032755       10.1452948340
  C        48.5278384036       22.3646224424       10.8730044643
  C        49.2672566465       23.0254486908       11.8655909780
  C        48.6906515364       24.0599524358       12.5968529226
  C        47.3603852565       24.4571044820       12.3583994904
  C        46.6397980577       23.8115432969       11.3353874398
  C        47.2134729655       22.7757422717       10.6034776657
  C        46.7215000828       25.5314793807       13.1499754366
  C        46.7338634255       25.5282526539       14.5717746058
  C        47.2488581875       24.4286814662       15.3279664241
  C        40.6364460155       17.1538976175       15.3240019678
  C        40.6573050980       17.1844917736       12.5158049722
  C        11.8832371742       14.0870249926       10.2857656699
  C        12.4724920742       12.9109724694       10.9896853479
  C        11.7150112658       12.1772829227       11.9153805800
  C        12.2813581751       11.0950381629       12.5843776087
  C        13.6202622695       10.7215647270       12.3524872090
  C        14.3586033468       11.4373005463       11.3921396524
  C        13.7927707898       12.5179574173       10.7190418649
  C        14.2541105530        9.6248452894       13.1226229152
  C        14.2529005718        9.6447820005       14.5444434247
  C        13.7425836559       10.7533168219       15.2918129032
  C        22.5116915773        3.2446232132        5.7538871309
  C        23.2212475371        4.3512763038        5.0510886473
  C        24.2144006829        4.0727367773        4.1004439433
  C        24.8378782393        5.1141761885        3.4181104311
  C        24.4841262787        6.4552709215        3.6651685146
  C        23.5186926924        6.7245639996        4.6519359193
  C        22.8906697591        5.6857375191        5.3337453231
  C        25.0861703889        7.5628833408        2.8891751940
  C        25.0559947208        7.5585235749        1.4678470984
  C        24.3523809535        6.5606559013        0.7214401781
  C        38.3050055926       31.9297781303        5.8483178873
  C        37.5785865486       30.8395957007        5.1377500168
  C        36.6201428991       31.1400302265        4.1580925896
  C        36.0068296420       30.1184297275        3.4382166246
  C        36.3371158805       28.7702432569        3.6796601002
  C        37.2667408743       28.4758239094        4.6948917284
  C        37.8837821549       29.4975121280        5.4115971613
  C        35.7367810035       27.6800067897        2.8787231372
  C        35.7725656736       27.6878285182        1.4577331044
  C        36.4784382602       28.6914907426        0.7226671726
  C        25.6795896765        8.6282455201        0.7483725676
  C        25.6846707554        8.6357752049        3.5613132556
  C        38.3298085681       31.9622339035       10.1560996142
  C        37.6101273045       30.8876992037       10.8972871177
  C        36.6813955539       31.1938167363       11.9034731072
  C        36.0754752731       30.1730630344       12.6331009085
  C        36.3827906621       28.8219636587       12.3762569084
  C        37.2879381672       28.5257275638       11.3389788613
  C        37.8969694563       29.5430051570       10.6117311995
  C        35.7818443224       27.7215629809       13.1627085117
  C        35.7958114881       27.7119039449       14.5845091616
  C        36.4900954648       28.7038956070       15.3457457923
  C        46.1346599735       26.6204629270       15.2816512171
  C        46.0884658463       26.5802778039       12.4735503833
  C        22.4605070671        3.2565378439       10.2573066415
  C        23.1525160830        4.3672240771       10.9797957534
  C        24.1528354723        4.0836753220       11.9232637805
  C        24.7781107793        5.1159947001       12.6185082066
  C        24.4231195039        6.4609438272       12.3930514147
  C        23.4461763310        6.7377550580       11.4183026890
  C        22.8162063547        5.7058749226       10.7234450613
  C        25.0506974373        7.5615545535       13.1661882878
  C        25.0389330364        7.5567865102       14.5888115091
  C        24.3416853643        6.5619651200       15.3447056009
  C        26.6048982587       17.8877158905        5.8211365396
  C        25.3246021300       17.9057216514        5.0437301728
  C        25.0533289334       18.9130992596        4.1053214581
  C        23.8323870776       18.9404207287        3.4351530609
  C        22.8447904166       17.9595574090        3.6595942638
  C        23.1137887843       16.9805674185        4.6352720747
  C        24.3333405388       16.9480691178        5.3119376647
  C        21.5728492565       17.9434947065        2.8955676298
  C        21.5775926364       17.9340682226        1.4731675786
  C        22.7857007028       17.8183526496        0.7150958965
  C        34.4517035045       17.1903965092        5.9404888635
  C        35.7378918555       17.1392993527        5.1839885107
  C        35.9345545992       16.1849898778        4.1743431214
  C        37.1140216036       16.1754611865        3.4353512876
  C        38.1261869604       17.1231266305        3.6821227245
  C        37.9307347799       18.0592375735        4.7153741060
  C        36.7472721638       18.0768111461        5.4498727421
  C        39.3802325020       17.1393683441        2.8965012014
  C        39.3763727668       17.1632494349        1.4750233776
  C        38.1701600889       17.2940742395        0.7172878012
  C        20.3313394929       17.9502745943        0.7654477944
  C        20.3503726613       17.9462144444        3.5815499919
  C        34.4767220421       17.2500866135       10.1843845433
  C        35.7781113907       17.1788708502       10.9070613134
  C        35.9969233695       16.2032298917       11.8892236248
  C        37.1783397270       16.1921870696       12.6228899428
  C        38.1779201719       17.1551491316       12.3844745923
  C        37.9731890622       18.1007340771       11.3619215845
  C        36.7860704206       18.1165418726       10.6338725481
  C        39.4254561466       17.1750350033       13.1782909809
  C        39.4006051482       17.1837275497       14.5993592588
  C        38.1824489774       17.3013187156       15.3402792065
  C        35.1662398545       26.6336738880       15.2891129965
  C        35.1889769674       26.6510325847       12.4815163890
  C        26.5744503043       17.8159969496       10.3288455634
  C        25.2604541922       17.8765573773       11.0321953540
  C        24.9892894669       18.8909765682       11.9617865642
  C        23.7748573247       18.9197727813       12.6408807621
  C        22.7945946266       17.9356362493       12.4026322186
  C        23.0519766677       16.9507442421       11.4313905717
  C        24.2694776225       16.9226515013       10.7538686522
  C        21.5297010440       17.9204126151       13.1746136023
  C        21.5529062964       17.9180358828       14.5964543464
  C        22.7718711105       17.8106760910       15.3384815114
  C        14.0473060580       17.8293622625       10.2884989108
  C        15.3514056024       17.8881971653       11.0140244095
  C        15.6066902919       18.8934131074       11.9598871419
  C        16.8153690199       18.9177054166       12.6530274684
  C        17.8027573392       17.9386995762       12.4219163513
  C        17.5531970917       16.9576979423       11.4437421308
  C        16.3436965617       16.9295222625       10.7526212883
  C        19.0720741268       17.9233209599       13.1903531499
  C        19.0708377158       17.9252666196       14.6127905389
  C        17.8647850357       17.8246813713       15.3751180457
  C        46.8069184443       17.2204271918       10.1600044161
  C        45.5194910807       17.1658752871       10.9090177599
  C        45.3132749661       16.1939473836       11.8999716064
  C        44.1334251050       16.1843806328       12.6387763971
  C        43.1322668422       17.1477137282       12.4078631362
  C        43.3356646417       18.0993290501       11.3905664248
  C        44.5162108116       18.1129724053       10.6531060537
  C        41.8802287020       17.1652007885       13.1959445197
  C        41.8838236326       17.1660643030       14.6174232160
  C        43.0927297849       17.2559943112       15.3767838443
  C        20.3174833918       17.9407793949       15.3205281689
  C        20.2970441928       17.9062536632       12.5095362786
  C        46.7859627385       17.2297805854        5.8915725637
  C        45.4821794002       17.1242707072        5.1788434110
  C        45.2649941470       16.1309619526        4.2122011050
  C        44.0770745837       16.1081774586        3.4859972610
  C        43.0774807653       17.0742047727        3.7115068846
  C        43.2845854068       18.0359884997        4.7177336466
  C        44.4738581372       18.0658794242        5.4385103674
  C        41.8337675774       17.1019558061        2.9120407443
  C        41.8604432538       17.1316857727        1.4916727610
  C        43.0811395598       17.2373297725        0.7534340462
  C        46.1541083454       26.6378007466        0.7263811950
  C        46.1617364638       26.6554251124        3.5359944093
  C        14.0460036606       17.8329876995        5.7094230311
  C        15.3670186417       17.9078612756        5.0188649152
  C        15.6396901987       18.9244996013        4.0913365744
  C        16.8688707499       18.9648288020        3.4370463125
  C        17.8523777117       17.9855266918        3.6826293840
  C        17.5874959819       16.9979160660        4.6486351178
  C        16.3602965683       16.9579651945        5.3063867819
  C        19.1192037148       17.9670571216        2.9129591144
  C        19.0969742595       17.9438157583        1.4914778147
  C        17.8774261362       17.8339309253        0.7512194811
  C        28.8059139702       14.1039405250       10.3964925386
  C        28.2006385619       12.9246321673       11.0793792618
  C        28.9144030736       12.1808755017       12.0298868729
  C        28.3120895184       11.1109962417       12.6862403529
  C        26.9782737788       10.7499367410       12.4067552998
  C        26.2846850292       11.4694442551       11.4169701466
  C        26.8873431851       12.5407344075       10.7628846637
  C        26.3042021276        9.6725474334       13.1664196058
  C        26.2875172536        9.7013815842       14.5868881891
  C        26.7899451399       10.8141699938       15.3331469655
  C        32.1872259711       21.2381354118       10.1466087804
  C        32.7822069279       22.4007016152       10.8665102012
  C        32.0345495575       23.0844411103       11.8356768138
  C        32.6119790581       24.1160153751       12.5683348576
  C        33.9480735136       24.4997911833       12.3426174621
  C        34.6718357406       23.8414508361       11.3302438256
  C        34.0998488005       22.8008259606       10.6005759304
  C        34.5801419656       25.5765650282       13.1395435219
  C        34.5743812456       25.5497313451       14.5619630656
  C        34.0680184192       24.4324436174       15.2988498718
  C        25.6738098065        8.6249382652       15.3040478021
  C        25.6708717156        8.6214485670       12.4911130470
  C        32.1025974216       21.2325114066        5.9019115700
  C        32.6909742659       22.3762975230        5.1394568287
  C        31.9596219284       23.0463353955        4.1479493712
  C        32.5456725321       24.0769438130        3.4174704873
  C        33.8816715745       24.4617039264        3.6429007571
  C        34.5966932022       23.7992716199        4.6591216411
  C        34.0133736465       22.7687445098        5.3923622614
  C        34.5285610958       25.5418579885        2.8607969500
  C        34.5438978822       25.5277998099        1.4379801692
  C        34.0502816524       24.4217053665        0.6763402954
  C        40.6234849757       17.1399441487        0.7679858922
  C        40.6031090562       17.1258022432        3.5768149827
  C        28.7353572094       14.0611815897        5.8298049567
  C        28.1253425681       12.9210784939        5.0845127170
  C        28.8593135598       12.2193896356        4.1147174755
  C        28.2753135493       11.1653377079        3.4159201409
  C        26.9396324600       10.7851751238        3.6565654509
  C        26.2243937213       11.4757864808        4.6525470514
  C        26.8033761561       12.5337083990        5.3497523519
  C        26.2961861924        9.6974638892        2.8829695227
  C        26.2854152951        9.7134301259        1.4620507610
  C        26.7880540299       10.8205330952        0.7089698734
  C        18.1362970115        3.1818366115       10.3173697605
  C        17.4063935065        4.2787314622       11.0156337904
  C        16.3904989171        3.9998892487       11.9429614453
  C        15.7426759297        5.0399769631       12.6064279619
  C        16.0952771613        6.3837004530       12.3679298300
  C        17.0841388761        6.6533590155       11.4038259080
  C        17.7331567487        5.6162454942       10.7386671334
  C        15.4700818000        7.4913797792       13.1301731060
  C        15.4860475848        7.4910334813       14.5518218253
  C        16.1870681957        6.4970225049       15.3049110336
  C        42.9469929182       31.8601949789       10.0726983631
  C        43.6468382830       30.7722435539       10.8167609116
  C        44.5913574562       31.0931502029       11.8037327320
  C        45.1975368190       30.0876793548       12.5509185049
  C        44.8715347746       28.7346443755       12.3354096605
  C        43.9455942690       28.4204518759       11.3221536230
  C        43.3364728063       29.4257241306       10.5743487134
  C        45.4882164987       27.6549249257       13.1388475206
  C        45.4934563656       27.6815463243       14.5606465968
  C        44.8055660486       28.6890882310       15.3073072771
  C        14.8560049626        8.5628808599       15.2641631100
  C        14.8752622796        8.5632490003       12.4516033706
  C        42.9466641014       31.9615810640        5.8093085134
  C        43.6928037708       30.8859144711        5.0960065189
  C        44.6558169645       31.1914854573        4.1221348963
  C        45.2781418144       30.1718197881        3.4054973584
  C        44.9535734690       28.8216175418        3.6426626445
  C        44.0216534913       28.5241564802        4.6550213532
  C        43.3924636802       29.5410187953        5.3665077989
  C        45.5643407941       27.7246822434        2.8581382055
  C        45.5327044689       27.7170932990        1.4368446113
  C        44.8274676459       28.7079688954        0.6837235303
  C        35.1505635907       26.6192352336        0.7337675851
  C        35.1343959642       26.6049833191        3.5426202136
  C        18.1488261795        3.2470317448        5.7065494032
  C        17.4306652207        4.3441138315        4.9973668395
  C        16.4149902908        4.0526719417        4.0741193858
  C        15.7664307167        5.0831857525        3.3986494653
  C        16.1212492448        6.4285041595        3.6208067304
  C        17.1125114826        6.7121671649        4.5780231927
  C        17.7603021690        5.6833486522        5.2574780561
  C        15.4908575231        7.5243954792        2.8486680140
  C        15.4963651289        7.5074159690        1.4275845531
  C        16.1939042441        6.5063638068        0.6807704989
  H        10.6725698914       12.4655281651        3.9048660078
  H        11.6946672180       10.5507710333        2.6627969380
  H        15.3918718295       11.1687394720        4.7719934858
  H        14.3511100810       13.0715107261        6.0170499025
  H        13.3760564956       11.6310753146        1.2013060112
  H        50.3229410261       22.7485819879        3.9869804263
  H        49.3196728975       24.6230304337        2.6808778014
  H        45.6420519060       24.1611831806        4.8636625655
  H        46.6629494929       22.2902529360        6.1719824048
  H        47.6295941286       23.5757233208        1.2463417902
  H        14.8723362892        8.5884278661        4.6085474411
  H        50.2873179489       22.7027474463       12.0603940968
  H        49.2689015487       24.5754500683       13.3604302428
  H        45.6103950261       24.1089866909       11.1463521801
  H        46.6523580768       22.2537357465        9.8319289606
  H        47.6072709360       23.5515185514       14.7968490395
  H        40.6636216140       17.1499148904       11.4279407528
  H        48.6869674134       14.0947693324        7.7997953611
  H        10.6815516266       12.4663175373       12.0929274503
  H        11.6895337803       10.5242454295       13.2967691102
  H        15.3939720533       11.1594475874       11.2060856591
  H        14.3651314528       13.0879514121        9.9911249759
  H        13.3757349686       11.6219272337       14.7532035156
  H        47.9301503568       14.2182317624        9.7109967886
  H        47.7801671121       14.3736354584        6.4952727568
  H        49.0841378618       18.5528148979       10.8678902195
  H        10.4161267389       14.1345705853        7.9987238904
  H        24.4762430640        3.0346041486        3.9079955996
  H        25.6078563610        4.8986073531        2.6804882022
  H        23.2369192936        7.7565027739        4.8503934513
  H        22.1231396252        5.8826540540        6.0781786346
  H        23.7898532990        5.8049428919        1.2618645288
  H        36.3797274733       32.1822094233        3.9618650587
  H        35.2628862507       30.3540739408        2.6803607600
  H        37.5291806669       27.4371561170        4.8848571064
  H        38.6267948853       29.2786084860        6.1746445306
  H        37.0437908188       29.4421489336        1.2677369712
  H        25.7214391425        8.6172145742        4.6490298390
  H        36.4563113593       32.2366958430       12.1140181540
  H        35.3504810858       30.4132292208       13.4076622654
  H        37.5360280321       27.4857367944       11.1369892874
  H        38.6179773692       29.3189775850        9.8296660667
  H        37.0623543132       29.4614388920       14.8190512175
  H        46.1094485256       26.5876192455       11.3854575520
  H        44.6681017400       35.1172988575        7.8134967217
  H        24.4309276277        3.0459732732       12.0933385280
  H        25.5572907002        4.8892595280       13.3431597143
  H        23.1601587242        7.7711833237       11.2336980604
  H        22.0456252860        5.9151558155        9.9851018058
  H        23.7707214404        5.8063401318       14.8130865909
  H        44.9544753974       34.3899629245        9.6959055753
  H        44.9020625774       34.2062528268        6.4900021801
  H        40.6663401655       33.2084539832       10.8539173637
  H        23.1495601648        1.9573606511        8.0049408770
  H        25.8082207081       19.6738204698        3.9270208591
  H        23.6333182033       19.7191817075        2.7007313992
  H        22.3588394347       16.2190756508        4.8266599977
  H        24.5351263309       16.1792217303        6.0538180292
  H        23.7268806181       17.7039888121        1.2458817753
  H        35.1488877727       15.4575723840        3.9841084986
  H        37.2704662683       15.4279625202        2.6610262523
  H        38.7056222035       18.7979945781        4.9115330022
  H        36.5827540559       18.8144387782        6.2316651218
  H        37.2310691248       17.4207497762        1.2488346316
  H        20.3607266876       17.9805838148        4.6697558065
  H        35.2100924198       15.4785054494       12.0813012782
  H        37.3416095266       15.4343033760       13.3850875680
  H        38.7420289966       18.8488575761       11.1780108786
  H        36.6080021077       18.8720845458        9.8718382946
  H        37.2505278626       17.4337342099       14.7982729318
  H        35.1570371501       26.6748662465       11.3933452435
  H        28.4938182385       21.1066520541        7.8976274579
  H        25.7543819510       19.6413388570       12.1476448062
  H        23.5683569095       19.7084824692       13.3604307908
  H        22.3034933108       16.1833779997       11.2448311194
  H        24.4861319475       16.1450591517       10.0251945991
  H        23.7045090175       17.6902854990       14.7959414909
  H        28.9925776305       21.7391188981        9.7513773888
  H        29.1957983051       21.7165295328        6.5668876337
  H        32.1152297982       18.5769201495       10.9335557156
  H        27.3810776172       19.0700945268        8.0788903497
  H        14.8475733788       19.6520512643       12.1366423008
  H        17.0095732847       19.7031921343       13.3802118018
  H        18.3051449081       16.1939094910       11.2566365298
  H        16.1388863560       16.1592310168       10.0131198655
  H        16.9225805123       17.7088414157       14.8480899025
  H        46.0936996488       15.4593305271       12.0835972214
  H        43.9720375032       15.4236079678       13.3993494761
  H        42.5697397841       18.8507726217       11.2097452352
  H        44.6912219921       18.8617041027        9.8841675886
  H        44.0347803418       17.3725301008       14.8487989714
  H        20.2900548877       17.9304387005       11.4213128646
  H        46.0427549183       15.3926486232        4.0308345067
  H        43.9100123878       15.3383579375        2.7357228776
  H        42.5167928490       18.7856193986        4.8979753596
  H        44.6566743404       18.8275307093        6.1925770728
  H        44.0149324001       17.3385658741        1.2990607430
  H        46.1997088810       26.6829237562        4.6234115269
  H        52.7414027493       21.0624223766        8.1946313407
  H        14.8792523944       19.6785016079        3.9004546432
  H        17.0794741992       19.7562675085        2.7209296820
  H        18.3382283179       16.2357137056        4.8464208734
  H        16.1395585495       16.1824249448        6.0355701673
  H        16.9441932295       17.7236945393        1.2952821986
  H        52.3225085218       21.6733514213        6.2942440426
  H        52.0131786985       21.7021474339        9.4958493196
  H        49.0676465854       18.6077502564        5.2040334044
  H        13.2477751739       19.0162390211        7.9772680496
  H        29.9410885201       12.4660407494       12.2475578190
  H        28.8704863456       10.5349359491       13.4205675577
  H        25.2534567433       11.2016180699       11.1956334571
  H        26.3446155205       13.1182586638       10.0185592636
  H        27.1514854629       11.6831056168       14.7920417224
  H        31.0120232770       22.7670198322       12.0227579525
  H        32.0310598236       24.6400568586       13.3231684723
  H        35.7054244512       24.1322735131       11.1539121043
  H        34.6726659441       22.2668971524        9.8459165472
  H        33.7115151545       23.5608371571       14.7577597126
  H        25.7038572331        8.5995758062       11.4033859588
  H        30.9353719294       22.7409543616        3.9539775484
  H        31.9754244992       24.5880522711        2.6442157260
  H        35.6230951332       24.1032833184        4.8540001683
  H        34.5760959902       22.2518027269        6.1652598370
  H        33.6830004045       23.5464742460        1.2058708724
  H        40.5946075811       17.0764211727        4.6641522091
  H        32.5264884814       14.1210902739        8.2645649937
  H        29.8947441025       12.4993709654        3.9341208960
  H        28.8532265098       10.6143513364        2.6765373478
  H        25.1899137799       11.1966334786        4.8425957817
  H        26.2445200813       13.0807782059        6.1044293291
  H        27.1467450684       11.6950559813        1.2437056240
  H        33.3044839074       14.1847105397        6.4361711892
  H        33.4200530499       14.4045106937        9.6162529300
  H        32.2589316189       18.6226214411        5.2252247984
  H        30.2131506215       14.1627011843        8.0916032171
  H        16.1178832979        2.9634904430       12.1296339065
  H        14.9531603238        4.8208774526       13.3221847198
  H        17.3671359686        7.6859356152       11.2105375272
  H        18.5155210394        5.8178825581       10.0110953809
  H        16.7538790268        5.7397461561       14.7715660027
  H        44.8278380262       32.1402496584       11.9770713625
  H        45.9373311422       30.3415851017       13.3068409150
  H        43.6834325043       27.3781539667       11.1519137352
  H        42.6004193097       29.1896504245        9.8092355549
  H        44.2303635913       29.4368876033       14.7688241698
  H        14.8516468176        8.5466721927       11.3634458309
  H        44.8994434272       32.2341892081        3.9314675175
  H        46.0244736524       30.4131795596        2.6517811279
  H        43.7647747123       27.4842626250        4.8463290002
  H        42.6467032732       29.3174863582        6.1256366831
  H        44.2685698052       29.4705573244        1.2182657345
  H        35.0872498308       26.6128876821        4.6301880146
  H        36.6050537186       35.1351189980        8.1797698821
  H        16.1435160179        3.0131641234        3.9040517341
  H        14.9741248101        4.8566226731        2.6883786992
  H        17.3965998615        7.7473659998        4.7548751624
  H        18.5431717516        5.8929178607        5.9823580316
  H        16.7646863170        5.7556211869        1.2192309463
  H        36.2786680394       34.4830171496        6.2732712232
  H        36.3810337514       34.2090424991        9.5008435901
  H        40.5809638356       33.2022800815        5.1529882015
  H        17.4700856522        1.9475865782        7.9740812874
  H        28.9953543419       19.4278532261       12.3830623742
  H        29.1104402402       19.3453311071        3.5068586350
  H        30.8596492480       15.2639218831        3.9084867009
  H        31.3965807742       15.6264731695       12.5294440991
  H        27.8600728382       18.1132404422       14.5846608742
  H        29.6778632516       15.2714073493       14.5532033227
  H        32.5520612347       16.6437160900        1.7749222739
  H        32.1993854953       18.6442003359       14.2823768119
  H        18.8547856530        0.8685882872       12.3351428284
  H        40.5276335496       35.2317146102        3.9514093153
  H        42.3249696760       34.4194472299        3.5898250166
  H        22.0874893651        0.6916899578       12.3518288639
  H        11.5967946923       18.7127518098       12.3826133948
  H        52.2646487367       18.4312159082        3.6773095088
  H        49.2551691532       16.4770338560        3.5845641494
  H        10.1500487197       15.7980780928       12.2930551181
  H        50.8502402403       17.6922837734        3.9541927698
  H        10.0460661457       17.3945686077       12.0519256588
  H        20.2153445829        0.0037837432       12.0423379459
  H        39.1852592194       36.1240298861        3.6869300078
 Ni        31.0959527009       17.6285061714        3.0254068414
 Ni        31.1796444895       16.7120752493       -0.0710584181
 Ni        29.8959587287       19.2003403677       -0.5011952482
 Ni        30.1266157034       17.4925589096       13.2392355972
  O        10.6503076047       14.3657226603        5.4859318410
  O        12.6130169636       14.6582356298        6.5836229441
  O        49.1487972689       16.8453643055        7.9895080755
  O        50.3504806240       20.9357340729        5.6480891887
  O        48.3480141272       20.5937028009        6.6657868620
  O        11.0520736102       17.0536012304        6.5008934433
  O        50.3210645360       20.8816787836       10.4076264911
  O        48.3459891322       20.5873737720        9.3274981856
  O        49.5439383429       18.2492006168       10.0685549801
  O        12.3592430821       18.6247090906        7.9995070499
  O        48.6936960826       14.1498939444        6.7512004692
  O         8.2095751964       14.2110728824        9.3221252331
  O        10.7352646755       14.5070955235       10.6633187298
  O        12.5712207124       14.5828561073        9.3281405127
  O        22.8416312044        2.0439711084        5.4853792117
  O        21.6033427441        3.5900992619        6.5886108182
  O        42.0601977274       34.1394358828        7.9790149782
  O        37.9805470460       33.1379508891        5.5714967559
  O        39.2175352724       31.5714470926        6.6677937557
  O        20.3093696633        1.0386728297        6.5053760205
  O        38.0225115857       33.1856801582       10.4163668937
  O        39.2189444501       31.5807511611        9.3254763614
  O        40.6465308083       33.7656308051       10.0592933571
  O        18.2552116975        1.3771136169        7.9972752299
  O        44.6201246394       35.0989429234        6.7586359437
  O        24.2051050521       -0.0019969859        9.3197824009
  O        22.7496441375        2.0585745755       10.5834865159
  O        21.6233949891        3.5944804053        9.3428107878
  O        27.4904032265       18.7631113109        5.5290886079
  O        26.7650045604       16.9255970138        6.6534036463
  O        30.6544915561       19.4059073872        7.9993364381
  O        33.5967428346       16.2809121575        5.6672464199
  O        34.2547220729       18.1799088315        6.7317603378
  O        29.5698740630       17.0527604734        6.5675817734
  O        33.6359540689       16.3082704228       10.3978927232
  O        34.3128622864       18.2540899045        9.4109329083
  O        31.6531081610       18.3353377910       10.1150015905
  O        30.3476168099       15.1276586166        8.0977783004
  O        28.5524273337       21.0339692598        6.8407189685
  O        28.5267649299       20.9599019235        9.4057781810
  O        27.4500334090       18.6822430700       10.6568552310
  O        26.6856496698       16.9294104673        9.4030468887
  O        13.1490240217       18.6929366591       10.5873145026
  O        13.9193683988       16.9163992532        9.4053171377
  O        50.5960042798       19.3510376318        8.0201235428
  O        47.6841984537       16.3273308076       10.4172010976
  O        46.9528618384       18.1761976770        9.3244255179
  O        11.0697857324       17.0150085147        9.4892128637
  O        47.6772346965       16.3358007221        5.6526202634
  O        46.9293296025       18.2358061854        6.6645750677
  O        49.5690353549       18.3181394378        5.9822460592
  O        10.3186132200       15.1003859655        7.9966762709
  O        52.6705573877       21.0279396712        9.2417514395
  O        12.1464270138       20.8910186073        6.6731702160
  O        13.1079016091       18.6135389771        5.3250055335
  O        13.9572246511       16.9868266310        6.6646832258
  O        29.9949170564       14.4439895374       10.7406794390
  O        28.0804811943       14.6447518819        9.4897055374
  O        32.1284560779       16.8381239812        8.0720055058
  O        30.9584499077       20.9914425914       10.3965952419
  O        32.9740243154       20.6215060527        9.3391558929
  O        29.5755427079       17.0811268526        9.5289690989
  O        30.8755374919       20.9545416570        5.6613706799
  O        32.9165859906       20.5746239787        6.6454546939
  O        31.6894595359       18.2478795052        5.9310517697
  O        28.2783577005       18.6923206106        8.0064454956
  O        32.5032993986       14.2225188800        9.3356632225
  O        32.4158813526       14.1937854112        6.8321437551
  O        29.9027638011       14.4342063166        5.4612412077
  O        28.0348918310       14.6101725785        6.7463238879
  O        17.8879069638        1.9682972872       10.6630893897
  O        18.9561501569        3.5259239572        9.4063748834
  O        39.1623532722       34.1325433659        7.9971771052
  O        43.2781799544       33.0610345411       10.3313339352
  O        42.0355977981       31.5050617715        9.2428943317
  O        20.3186405243        1.0363462793        9.4787405535
  O        43.2744282464       33.1835517409        5.5756349993
  O        42.0050159063       31.5825397843        6.5817382033
  O        40.5752041138       33.7730245944        5.9361964320
  O        22.3685491095        1.3808165450        7.9997058075
  O        36.6733716437       35.0988029190        9.2322208001
  O        16.4488601439        0.0627006559        6.6682953138
  O        17.9354037189        2.0442295800        5.3256614003
  O        18.9195695484        3.5910634420        6.6666991200
  O        29.9652624533       18.9375668354        3.8486255427
  O        29.7945162910       18.9929176200       11.9976754348
  O        31.4349845777       16.0344086923        3.9879327051
  O        31.3518443077       16.4914733178       12.0602108268
  O        32.1027525867       17.4300836828        1.3637230160
  O        30.4648709173       15.8234870056       14.3166754245
  O        31.4406328797       18.3095248162       14.7503922336
  O        28.6199162353       18.5619185190       14.2713337733
  O        39.4567800885       35.2419661569        3.9997939503
  O        19.1421210108        0.0033127077       11.9918538609
  O        41.9676291071       35.1680783652        4.0917979433
  O        21.6916345620       -0.0702763428       11.8963383749
  O        51.3646847850       18.6144037829        4.0051181003
  O        10.7510384155       18.7474919555       11.9049705090
  O        50.0792108708       16.4135668149        4.0924044406
  O         9.5243117889       16.4830769037       11.9916185456
 Zr         9.2973428850       16.0530114225        6.1825437547
 Zr        49.8364300976       16.0069799590        9.7462366323
 Zr        22.0715539042        0.0295713669        6.1897587558
 Zr        42.4590621732       35.1524640127        9.8015268739
 Zr        29.6025087334       19.0995761167        6.1813222926
 Zr        29.5790545028       19.1916198402        9.8082571595
 Zr        11.0381363231       19.0517524440        9.8273500242
 Zr        11.0442475390       19.1546609908        6.2509599451
 Zr        31.3548275560       16.1327432221        9.8923319821
 Zr        31.4099093052       15.9854446153        6.3143237813
 Zr        18.6002392457       -0.0020982841        9.7638149022
 Zr        18.5063806906       -0.0081974104        6.2133061155
 Zr        12.3024286045       16.3238827641        7.9902331883
 Zr        48.6167308452       18.8332765117        8.0104182715
 Zr        20.3142152953        2.4705072283        7.9907084204
 Zr        40.6439181806       32.6841205569        7.9779913524
 Zr        28.3263911570       16.3470143125        8.0745031349
 Zr        32.6368725074       18.8555335488        8.0621429476
  H        28.8845586023       19.7293692923        0.2051169976
  H        31.2012593703       15.2531556759        0.2736457446
