     569
 i =      120, E =     -4729.4973297250
  C        11.8586421584       14.0534598915        5.7415503956
  C        12.4560692682       12.8903995158        5.0234181622
  C        11.7045104363       12.1717911362        4.0814006130
  C        12.2808642091       11.1095741524        3.3890513768
  C        13.6213017467       10.7394333406        3.6170862783
  C        14.3542666965       11.4426012800        4.5910168916
  C        13.7813993890       12.5075669856        5.2825490532
  C        14.2609052396        9.6488652209        2.8436306587
  C        14.2561999277        9.6568173814        1.4219253235
  C        13.7428885799       10.7588603834        0.6679968665
  C        49.1265623597       21.2333567655        5.8798034223
  C        48.5497815514       22.4011944660        5.1526818014
  C        49.2998127984       23.0684946580        4.1716602831
  C        48.7328746149       24.1075954087        3.4384342090
  C        47.4023345728       24.5092510996        3.6670561842
  C        46.6713763284       23.8603757806        4.6805663995
  C        47.2338186415       22.8154868330        5.4099454398
  C        46.7721522132       25.5869653576        2.8697686284
  C        46.7612000423       25.5573525293        1.4480074855
  C        47.2610093774       24.4421948544        0.7045266013
  C        14.8603120433        8.5705898304        0.7086360836
  C        14.8918283150        8.5969655274        3.5202469293
  C        49.1129998685       21.2034186548       10.1454276990
  C        48.5276470642       22.3647479967       10.8725455649
  C        49.2668897683       23.0255521072       11.8654026079
  C        48.6905394210       24.0600921009       12.5968504439
  C        47.3600825803       24.4567762126       12.3586734944
  C        46.6396362904       23.8117521130       11.3352486487
  C        47.2131995606       22.7758400138       10.6034824339
  C        46.7216702842       25.5317785440       13.1496798717
  C        46.7334320596       25.5281560362       14.5713801057
  C        47.2487502705       24.4288907612       15.3277645086
  C        40.6232463904       17.0858572816       15.3105935659
  C        40.6335923534       17.0990152106       12.5010738276
  C        11.8828890090       14.0864263292       10.2854439128
  C        12.4721114121       12.9105079964       10.9895205305
  C        11.7147254431       12.1776417849       11.9160133139
  C        12.2812576426       11.0951673200       12.5844417220
  C        13.6199397593       10.7210916632       12.3523257461
  C        14.3577175913       11.4362060677       11.3910171921
  C        13.7923259323       12.5173699118       10.7183015164
  C        14.2536118240        9.6244424420       13.1227972955
  C        14.2523387787        9.6444562438       14.5446407781
  C        13.7423302935       10.7533264406       15.2917415682
  C        22.5123681152        3.2450997371        5.7544534402
  C        23.2266305040        4.3524621329        5.0584554931
  C        24.2270711105        4.0772293028        4.1145436515
  C        24.8517977015        5.1201188908        3.4354040654
  C        24.4913942312        6.4602849587        3.6796997706
  C        23.5199808034        6.7270343209        4.6615767774
  C        22.8909568016        5.6861705345        5.3393532851
  C        25.0903686632        7.5703063271        2.9040620927
  C        25.0607558505        7.5622410970        1.4826194913
  C        24.3643585069        6.5578178561        0.7379709281
  C        38.2981813020       31.9275486524        5.8515424567
  C        37.5574058675       30.8377372114        5.1499008515
  C        36.5908407013       31.1428292715        4.1789746114
  C        35.9618061420       30.1238981448        3.4682607323
  C        36.2837786277       28.7726983700        3.7042581663
  C        37.2195653385       28.4750430775        4.7131205243
  C        37.8522810913       29.4929551401        5.4235162577
  C        35.6758352895       27.6836077107        2.9039196248
  C        35.7146965878       27.7008593336        1.4817930090
  C        36.4249996806       28.7041518735        0.7496337994
  C        25.6749350908        8.6362593473        0.7615527888
  C        25.6810048651        8.6493319803        3.5739885641
  C        38.3307419463       31.9614668240       10.1598780994
  C        37.6139057362       30.8889257526       10.9092301659
  C        36.6809288521       31.1993556092       11.9106425173
  C        36.0706525978       30.1828421248       12.6434104491
  C        36.3785994388       28.8294223225       12.3989152980
  C        37.2926695311       28.5288682306       11.3702739642
  C        37.9046975010       29.5419088250       10.6386176915
  C        35.7636927865       27.7309940873       13.1801814017
  C        35.7595124855       27.7253090416       14.6026995149
  C        36.4450759232       28.7165670689       15.3728976067
  C        46.1355221518       26.6208533500       15.2815006362
  C        46.0877338935       26.5801333559       12.4736066881
  C        22.4605831313        3.2567442134       10.2595499408
  C        23.1520343263        4.3658276704       10.9851069836
  C        24.1500670963        4.0810221157       11.9308496960
  C        24.7748962804        5.1117024178       12.6293513263
  C        24.4225906419        6.4578524409       12.4050475620
  C        23.4478267617        6.7357213446       11.4277278080
  C        22.8181381327        5.7054265986       10.7300038827
  C        25.0497644582        7.5583027800       13.1800189608
  C        25.0398571418        7.5556655349       14.6031454092
  C        24.3518750444        6.5561983790       15.3611086472
  C        26.6162779605       17.8495308090        5.7418121922
  C        25.3175767332       17.9061725216        5.0152101047
  C        25.0501329178       18.9095699529        4.0706758126
  C        23.8304982468       18.9337686668        3.3975823109
  C        22.8441483731       17.9581991601        3.6473168028
  C        23.1079610755       16.9775775116        4.6222719069
  C        24.3276798880       16.9482855879        5.2937208495
  C        21.5692529194       17.9434411086        2.8886322009
  C        21.5714571822       17.9200706049        1.4667353195
  C        22.7778684353       17.7916835724        0.7084821034
  C        34.4448787674       17.1902249548        5.9226209091
  C        35.7365266196       17.1448950328        5.1780129549
  C        35.9437492264       16.1706313748        4.1886069609
  C        37.1224431846       16.1574279378        3.4489091364
  C        38.1278678608       17.1165570895        3.6789632450
  C        37.9243202428       18.0711757831        4.6936276987
  C        36.7419830978       18.0903823288        5.4303826017
  C        39.3803341660       17.1213694787        2.8893934450
  C        39.3720198773       17.1212395222        1.4674188317
  C        38.1629099996       17.2362685189        0.7119544668
  C        20.3253594716       17.9381883116        0.7585892175
  C        20.3456351671       17.9441831465        3.5724551354
  C        34.4471564660       17.2315637712       10.1884339633
  C        35.7469124316       17.1353116875       10.9102697259
  C        35.9452164140       16.1611242854       11.9001296201
  C        37.1353893885       16.1287209017       12.6223336719
  C        38.1542966962       17.0699205666       12.3758964937
  C        37.9608907162       18.0172964586       11.3529627619
  C        36.7706631987       18.0545615020       10.6330020386
  C        39.4034540488       17.0854435394       13.1688451912
  C        39.3839010978       17.1041297692       14.5903501486
  C        38.1684695260       17.2270935178       15.3351170865
  C        35.1227825976       26.6461380389       15.3013926316
  C        35.1788501272       26.6601102969       12.4919538541
  C        26.5707712014       17.8274965981       10.3257416894
  C        25.2556845862       17.8769201339       11.0285547926
  C        24.9943719211       18.8794975828       11.9748161830
  C        23.7759238645       18.9059922936       12.6473178580
  C        22.7905062579       17.9301002163       12.3971616552
  C        23.0467168305       16.9523964637       11.4188262643
  C        24.2656787921       16.9234587181       10.7445718081
  C        21.5264536113       17.9119930698       13.1688607645
  C        21.5489835994       17.9015974400       14.5901862758
  C        22.7666520081       17.7824007142       15.3323111365
  C        14.0457218856       17.8299074645       10.2869426707
  C        15.3508341750       17.8895522695       11.0097147859
  C        15.6076144621       18.8958691100       11.9537046491
  C        16.8171007619       18.9188136015       12.6452052345
  C        17.8027180481       17.9383104383       12.4137817628
  C        17.5510257585       16.9564811262       11.4371368296
  C        16.3409360425       16.9289896437       10.7473809923
  C        19.0708723848       17.9216302332       13.1828431148
  C        19.0677782831       17.9184044075       14.6050854114
  C        17.8600878238       17.8204427203       15.3655022097
  C        46.8028903488       17.2159894198       10.1570100022
  C        45.5101123165       17.1453883454       10.8977241041
  C        45.3059464756       16.1610706165       11.8773383614
  C        44.1224092644       16.1326522318       12.6101970987
  C        43.1122251151       17.0884202607       12.3862122455
  C        43.3129671045       18.0514738541       11.3787005700
  C        44.4974045590       18.0837985675       10.6465014394
  C        41.8594283799       17.0922117781       13.1765699166
  C        41.8684148956       17.0967375429       14.5987085063
  C        43.0789967184       17.1956002831       15.3542627704
  C        20.3137064279       17.9284781365       15.3139945849
  C        20.2951570409       17.9018797557       12.5012954826
  C        46.7856046720       17.2321975969        5.8870371066
  C        45.4846900939       17.1283615295        5.1673920013
  C        45.2665621474       16.1281292995        4.2077035268
  C        44.0797829287       16.1009985650        3.4794522584
  C        43.0815406292       17.0714617752        3.6930637994
  C        43.2907985955       18.0426539269        4.6900701030
  C        44.4783615019       18.0757642474        5.4139979570
  C        41.8344061485       17.0906185399        2.8975130066
  C        41.8558237257       17.0943158026        1.4762571225
  C        43.0732089091       17.1911373722        0.7312679806
  C        46.1532979003       26.6372939172        0.7262580426
  C        46.1622891322       26.6561321415        3.5358988906
  C        14.0440487837       17.8313024916        5.7081259216
  C        15.3638763643       17.9056248741        5.0149547635
  C        15.6349029245       18.9223617470        4.0871672706
  C        16.8624800018       18.9611975088        3.4298252789
  C        17.8465030878       17.9824419390        3.6748407903
  C        17.5820673305       16.9939065141        4.6401772147
  C        16.3564300084       16.9546589970        5.3010240883
  C        19.1133605913       17.9604554268        2.9052368153
  C        19.0901178265       17.9375839096        1.4835275000
  C        17.8708441081       17.8287841131        0.7419076907
  C        28.8043263462       14.0897119746       10.3955246582
  C        28.1876184684       12.9200732076       11.0834767186
  C        28.8962878627       12.2028938010       12.0589218288
  C        28.2937534877       11.1302127284       12.7107875293
  C        26.9681320979       10.7526405130       12.4140370094
  C        26.2823355151       11.4513700805       11.4041517844
  C        26.8826945434       12.5234273649       10.7492254084
  C        26.2947791300        9.6762586100       13.1755249617
  C        26.2733095702        9.7091768677       14.5966768194
  C        26.7624696551       10.8294236946       15.3411170802
  C        32.1807240432       21.2385983572       10.1433209804
  C        32.7752112112       22.4077115934       10.8590914041
  C        32.0262042402       23.0860538356       11.8332222911
  C        32.5953703590       24.1259303769       12.5621528627
  C        33.9304042291       24.5160645195       12.3401897225
  C        34.6620041097       23.8567110502       11.3341153353
  C        34.0948394454       22.8117039517       10.6062699290
  C        34.5570022273       25.5903029412       13.1455179184
  C        34.5378217462       25.5621408942       14.5676450525
  C        34.0243638434       24.4464105922       15.3013252192
  C        25.6695549156        8.6288293214       15.3165051998
  C        25.6650551550        8.6202723187       12.5032263179
  C        32.0966890824       21.1622444329        5.8350181773
  C        32.6585062300       22.3289876378        5.0942816346
  C        31.9209755383       22.9967031899        4.1041346710
  C        32.4919297159       24.0468163996        3.3872280831
  C        33.8150537495       24.4609598370        3.6405245333
  C        34.5329360334       23.8092871100        4.6618292364
  C        33.9671667294       22.7562264824        5.3742757864
  C        34.4552395784       25.5512925421        2.8672114622
  C        34.4834825608       25.5432024107        1.4450471422
  C        33.9971291122       24.4380344830        0.6779270909
  C        40.6166701650       17.0897099753        0.7555596662
  C        40.6053645678       17.1226236699        3.5657751866
  C        28.7209506398       14.0985816336        5.8166177515
  C        28.1023844671       12.9524045615        5.0862571142
  C        28.8312811995       12.2650132077        4.1030945896
  C        28.2500112915       11.2084574355        3.4069160595
  C        26.9230404580       10.8106270849        3.6675096136
  C        26.2114841257       11.4853233525        4.6776417954
  C        26.7910464879       12.5436952667        5.3758064682
  C        26.2835713393        9.7171612874        2.8960143503
  C        26.2704012282        9.7293296665        1.4737057463
  C        26.7594306852       10.8403460762        0.7172477157
  C        18.1355316424        3.1809794376       10.3172387707
  C        17.4063047333        4.2782477150       11.0159251848
  C        16.3902696702        3.9999268927       11.9430948791
  C        15.7425490323        5.0399335773       12.6065611283
  C        16.0948105326        6.3836035196       12.3671621420
  C        17.0846208354        6.6530984062       11.4038480525
  C        17.7337272931        5.6157272882       10.7388443359
  C        15.4703771236        7.4912949883       13.1301532587
  C        15.4856708691        7.4906555229       14.5518603797
  C        16.1873967779        6.4971424983       15.3050029602
  C        42.9458114458       31.8595901614       10.0728529768
  C        43.6462039005       30.7718764232       10.8167765675
  C        44.5917725817       31.0932150293       11.8028018575
  C        45.1975027105       30.0876756481       12.5504616665
  C        44.8710382694       28.7346137000       12.3356593584
  C        43.9451890694       28.4202467928       11.3224731633
  C        43.3363781337       29.4253869825       10.5744196745
  C        45.4886205583       27.6553213923       13.1388646950
  C        45.4928751307       27.6810040540       14.5605603097
  C        44.8059355807       28.6891513333       15.3071822427
  C        14.8565360069        8.5630605064       15.2642037504
  C        14.8749518318        8.5629485756       12.4515375200
  C        42.9464801481       31.9617172225        5.8089987657
  C        43.6917426503       30.8855713570        5.0955373116
  C        44.6563793195       31.1914959594        4.1232869194
  C        45.2779160013       30.1719213848        3.4055487725
  C        44.9541017430       28.8216031885        3.6431184827
  C        44.0205946048       28.5239131496        4.6538686548
  C        43.3923366086       29.5406688685        5.3660676820
  C        45.5630992678       27.7241914461        2.8578481082
  C        45.5334332189       27.7175145745        1.4365462935
  C        44.8272370903       28.7078187179        0.6835740759
  C        35.0975569419       26.6354832327        0.7468593586
  C        35.0638007032       26.6075178496        3.5578630231
  C        18.1487416216        3.2469849190        5.7066087724
  C        17.4302363783        4.3438474726        4.9971941429
  C        16.4147910718        4.0526206853        4.0738828114
  C        15.7664993338        5.0832750937        3.3985027291
  C        16.1214279785        6.4284650593        3.6210190162
  C        17.1131557228        6.7118103267        4.5779103082
  C        17.7608211834        5.6828723673        5.2576580770
  C        15.4908229241        7.5241567350        2.8486292306
  C        15.4967167149        7.5075804874        1.4274970560
  C        16.1936328925        6.5059732545        0.6808153255
  H        10.6724872659       12.4661462203        3.9041237301
  H        11.6946322899       10.5513199343        2.6622910711
  H        15.3911430726       11.1676421981        4.7730915069
  H        14.3507085553       13.0704267293        6.0183790695
  H        13.3757080513       11.6309249268        1.2012841055
  H        50.3225135816       22.7484449703        3.9869229202
  H        49.3193216199       24.6228541978        2.6808250204
  H        45.6418733401       24.1611234047        4.8637129842
  H        46.6627718075       22.2902383972        6.1720105649
  H        47.6293544018       23.5757337746        1.2462086308
  H        14.8721794296        8.5881422894        4.6085538356
  H        50.2869645315       22.7027765120       12.0602601257
  H        49.2689096378       24.5756137897       13.3603238867
  H        45.6101709200       24.1088498596       11.1462917802
  H        46.6522816394       22.2535663316        9.8320639616
  H        47.6073507772       23.5516893651       14.7968818523
  H        40.6371282082       17.0625222706       11.4133442308
  H        48.6870485168       14.0948361161        7.8000594091
  H        10.6813561269       12.4669311766       12.0936617821
  H        11.6895190572       10.5249967000       13.2973635860
  H        15.3929994155       11.1579725272       11.2047553846
  H        14.3645275779       13.0863737417        9.9893826325
  H        13.3753383161       11.6218822792       14.7531286656
  H        47.9301523308       14.2180024425        9.7107533258
  H        47.7798516945       14.3729225590        6.4952268627
  H        49.0824118279       18.5518335157       10.8670338888
  H        10.4159180874       14.1343254623        7.9987162261
  H        24.4925059766        3.0398987000        3.9229949360
  H        25.6274515068        4.9066862813        2.7031249258
  H        23.2346580932        7.7586907862        4.8566673322
  H        22.1184569999        5.8826689387        6.0787412551
  H        23.8083628886        5.7979990882        1.2793580683
  H        36.3571662645       32.1865750059        3.9825176443
  H        35.2134556223       30.3664647606        2.7169203917
  H        37.4772276376       27.4353771532        4.9045738281
  H        38.6001846627       29.2685882347        6.1804671656
  H        36.9855702272       29.4542418232        1.2997966438
  H        25.7186660824        8.6316132088        4.6617204950
  H        36.4533686533       32.2438421710       12.1114214977
  H        35.3403951282       30.4303666024       13.4106950527
  H        37.5442602924       27.4884793364       11.1751681569
  H        38.6311509953       29.3137222703        9.8624501622
  H        37.0220437974       29.4759517148       14.8528347351
  H        46.1090721266       26.5874796013       11.3855695218
  H        44.6684088995       35.1162784193        7.8139171904
  H        24.4274520525        3.0430416841       12.1002349360
  H        25.5526677564        4.8826798292       13.3547477798
  H        23.1638692050        7.7700658296       11.2446682146
  H        22.0499401427        5.9184533507        9.9902028015
  H        23.7856039895        5.7957669351       14.8311864441
  H        44.9543301700       34.3908922466        9.6955081786
  H        44.9019863594       34.2069410849        6.4905873307
  H        40.6665059015       33.2093641777       10.8532561214
  H        23.1503822266        1.9582517973        8.0059500698
  H        25.8020717507       19.6718482799        3.8810448375
  H        23.6263834687       19.7168632065        2.6705819834
  H        22.3577714920       16.2151223520        4.8217127662
  H        24.5434724224       16.1784588174        6.0308650608
  H        23.7185898618       17.6680090208        1.2371986750
  H        35.1646191351       15.4340369702        4.0081560276
  H        37.2806150743       15.3946290127        2.6896671602
  H        38.6925954836       18.8198479794        4.8757109676
  H        36.5694866220       18.8416840020        6.1975949535
  H        37.2246284334       17.3643649812        1.2440967238
  H        20.3524403841       17.9837100654        4.6603352071
  H        35.1478266475       15.4497543016       12.1031422813
  H        37.2875039110       15.3703577852       13.3871974345
  H        38.7404831464       18.7506885281       11.1577064794
  H        36.6013666837       18.8048242512        9.8645194262
  H        37.2341862295       17.3478374087       14.7943786772
  H        35.1609138630       26.6864289519       11.4040577531
  H        28.5137503024       21.0794669386        8.0211268904
  H        25.7588986179       19.6291147585       12.1662527668
  H        23.5728095008       19.6870511761       13.3767678493
  H        22.2943560008       16.1916250180       11.2210584855
  H        24.4803987556       16.1558184554       10.0049897774
  H        23.6983313177       17.6523798553       14.7897961533
  H        29.0211553146       21.7126921223        9.7503569275
  H        29.1028622286       21.7765671123        6.6191794024
  H        32.0743764993       18.5370733704       11.0063451549
  H        27.4085594869       19.0902964690        8.0862437852
  H        14.8487211983       19.6548230420       12.1302488090
  H        17.0134976670       19.7047586065       13.3713155379
  H        18.3023763438       16.1918857226       11.2505722785
  H        16.1335642333       16.1579380975       10.0091956534
  H        16.9179165207       17.7057639725       14.8374051593
  H        46.0922215877       15.4319763235       12.0582474876
  H        43.9660023970       15.3621032810       13.3619473407
  H        42.5411441379       18.7973942725       11.2005448297
  H        44.6678442661       18.8421740048        9.8858795446
  H        44.0195054818       17.3067513788       14.8222737911
  H        20.2894918470       17.9322682909       11.4131907067
  H        46.0424104137       15.3858269362        4.0346146063
  H        43.9130248101       15.3239097087        2.7366804803
  H        42.5253327281       18.7966316567        4.8613402435
  H        44.6605377807       18.8439788550        6.1614699558
  H        44.0093623288       17.2978167399        1.2716402600
  H        46.1990895773       26.6826627235        4.6233460452
  H        52.7409435423       21.0625599011        8.1946210756
  H        14.8735907255       19.6759609806        3.8980915341
  H        17.0719066625       19.7528151734        2.7135878575
  H        18.3330929961       16.2314164949        4.8363636900
  H        16.1367786655       16.1789003619        6.0305445838
  H        16.9368999218       17.7203772500        1.2851511052
  H        52.3218681192       21.6731479575        6.2945857343
  H        52.0129915670       21.7019568533        9.4956084033
  H        49.0670002089       18.6078149008        5.2042281192
  H        13.2470112273       19.0167516416        7.9767854119
  H        29.9146670852       12.5034552264       12.2950769018
  H        28.8452068292       10.5725466025       13.4645858601
  H        25.2581767078       11.1702464901       11.1676003359
  H        26.3501284584       13.0843411662        9.9852008532
  H        27.1158492494       11.7018607911       14.7999439722
  H        31.0020457347       22.7705258903       12.0168020190
  H        32.0082662751       24.6493849978       13.3135572463
  H        35.6955530583       24.1468655683       11.1563425378
  H        34.6672520677       22.2771677281        9.8516124642
  H        33.6763938435       23.5759469051       14.7524251891
  H        25.7010795116        8.5966119955       11.4154824752
  H        30.9003434395       22.6800192023        3.9027483726
  H        31.9121780871       24.5631816987        2.6252190421
  H        35.5566038639       24.1164503312        4.8657679889
  H        34.5288874630       22.2338673241        6.1448987707
  H        33.6284874898       23.5601614509        1.2007562548
  H        40.6011708633       17.0937541546        4.6537200345
  H        32.5058012503       14.1467804784        8.2578193181
  H        29.8541430432       12.5747441293        3.9016926617
  H        28.8241375511       10.6731940333        2.6537414036
  H        25.1850066098       11.1913662840        4.8871605959
  H        26.2366098942       13.0786756390        6.1432597109
  H        27.1086948584       11.7214423303        1.2477520650
  H        33.3075023901       14.2172356045        6.4617448648
  H        33.4077570655       14.3928667838        9.6046563387
  H        32.1265395285       18.4544942671        5.1637758505
  H        30.1806388939       14.1614803016        8.0785166312
  H        16.1179729648        2.9634409176       12.1292453516
  H        14.9528583884        4.8206277533       13.3219788684
  H        17.3674542881        7.6859315767       11.2111074559
  H        18.5161696458        5.8183120332       10.0114127595
  H        16.7540910962        5.7399254142       14.7714702109
  H        44.8280915714       32.1402976881       11.9769437752
  H        45.9374239735       30.3414617250       13.3063421511
  H        43.6824889518       27.3781733470       11.1523831964
  H        42.5998210085       29.1900369865        9.8097015265
  H        44.2306951899       29.4370007733       14.7688715185
  H        14.8512104158        8.5461230626       11.3633179637
  H        44.8999630146       32.2341777388        3.9318849202
  H        46.0248607725       30.4131877635        2.6523614933
  H        43.7636275189       27.4841788053        4.8454032106
  H        42.6458484449       29.3178607409        6.1245196102
  H        44.2688697350       29.4708151138        1.2181476034
  H        35.0162892191       26.6168248275        4.6452458936
  H        36.6053823744       35.1340156859        8.1806437049
  H        16.1435261194        3.0130601580        3.9043584371
  H        14.9739982475        4.8564944855        2.6885937513
  H        17.3969933731        7.7472364674        4.7545011793
  H        18.5440080708        5.8932692097        5.9821044733
  H        16.7652182133        5.7558595165        1.2192729967
  H        36.2792839282       34.4819733844        6.2731277479
  H        36.3816181160       34.2087694844        9.4993812358
  H        40.5793926077       33.2020984796        5.1537880792
  H        17.4711317199        1.9472459329        7.9741180590
  H        29.1785370735       19.3384820105       12.6281813823
  H        28.5553407768       18.5603230656        4.0538299101
  H        31.8946697344       15.7867139226        3.6096991018
  H        31.1680016856       15.5486601155       12.4642588891
  H        28.0224343364       17.8184569951       14.4509756288
  H        29.2918225998       15.2404524451       14.4553475082
  H        32.4459189539       17.3141737442        1.2901262730
  H        18.8537141683        0.8690681043       12.3352906598
  H        40.5281935862       35.2288965284        3.9520265661
  H        42.3247014090       34.4196296558        3.5901307638
  H        22.0877061658        0.6925153107       12.3512927266
  H        11.5969439197       18.7129740604       12.3823880641
  H        52.2647095787       18.4307889055        3.6775357946
  H        49.2551985230       16.4766215219        3.5843818194
  H        10.1508653623       15.7981332332       12.2925132740
  H        50.8496431464       17.6923778786        3.9542978992
  H        10.0463056947       17.3945205338       12.0520082850
  H        20.2151098233        0.0023607167       12.0419385118
  H        39.1839005907       36.1245009726        3.6865150328
 Ni        30.5253558552       17.4635333945        2.6616302235
 Ni        30.9876518092       16.2308481721       -0.2477203850
 Ni        29.5884727598       18.0680209865        0.2485927230
 Ni        30.1810840164       17.3771536716       13.3260432726
  O        10.6499241420       14.3651364338        5.4858350839
  O        12.6131872555       14.6575105060        6.5838710573
  O        49.1478555479       16.8459801261        7.9898102002
  O        50.3501221569       20.9361337285        5.6482368672
  O        48.3485084602       20.5932698950        6.6660037873
  O        11.0512819009       17.0540214869        6.5006414770
  O        50.3209202572       20.8817041095       10.4068077789
  O        48.3467024823       20.5867487264        9.3270935070
  O        49.5435454071       18.2484612727       10.0683270969
  O        12.3587858154       18.6245630858        7.9996779349
  O        48.6932394424       14.1485799134        6.7513208827
  O         8.2099069973       14.2103399467        9.3225002781
  O        10.7353726524       14.5067347935       10.6643327096
  O        12.5717870413       14.5828480798        9.3284732525
  O        22.8446519751        2.0439540202        5.4872668980
  O        21.6049410102        3.5919653281        6.5905752979
  O        42.0581105009       34.1374069241        7.9789281011
  O        37.9813779820       33.1362694237        5.5720571014
  O        39.2171878945       31.5749726292        6.6656773075
  O        20.3084678060        1.0396193488        6.5021980645
  O        38.0245628053       33.1854065976       10.4155244300
  O        39.2185837507       31.5831980005        9.3272177769
  O        40.6522547863       33.7693036639       10.0601246908
  O        18.2557406674        1.3759737259        7.9967929784
  O        44.6221960728       35.1005863849        6.7587518163
  O        24.2054000641        0.0000391808        9.3207470818
  O        22.7531219551        2.0582328980       10.5843027152
  O        21.6247616858        3.5964385627        9.3436148873
  O        27.5477325721       18.6895974390        5.4058877581
  O        26.7292344315       16.9942913151        6.6673784713
  O        30.6693670592       19.4119572617        8.0901411962
  O        33.5933476976       16.2729767659        5.6747704444
  O        34.2742554328       18.1683310858        6.7377295975
  O        29.5694578638       17.0676471877        6.5767298498
  O        33.5641709015       16.3366501683       10.4104781883
  O        34.3038981714       18.2390506590        9.4082754074
  O        31.6531378526       18.3129891681       10.1584672736
  O        30.2928261251       15.1255748847        8.0879402378
  O        28.5541578510       21.0294176289        6.9145541610
  O        28.5175710936       20.9539210657        9.4078011941
  O        27.4587176178       18.6786319625       10.6626265428
  O        26.6941261400       16.9300034837        9.4141585570
  O        13.1479861684       18.6932823488       10.5870247017
  O        13.9189686195       16.9161323369        9.4046008993
  O        50.5957370773       19.3502434542        8.0205138450
  O        47.6835031261       16.3268372608       10.4171204316
  O        46.9506398678       18.1755003905        9.3255146763
  O        11.0694315721       17.0156811656        9.4896535102
  O        47.6761242433       16.3357816727        5.6530311632
  O        46.9267109580       18.2358170270        6.6641016850
  O        49.5683807834       18.3177498431        5.9822937234
  O        10.3186726474       15.1001956633        7.9970662940
  O        52.6707044792       21.0279145175        9.2418168182
  O        12.1467933585       20.8911895362        6.6732149553
  O        13.1073240332       18.6139604808        5.3256039225
  O        13.9567663997       16.9870700129        6.6650217247
  O        29.9885402281       14.4380396106       10.7315959894
  O        28.0865253140       14.6542924486        9.4960333352
  O        32.0763471909       16.8642203382        8.0795409622
  O        30.9656771725       20.9521202716       10.4093871893
  O        32.9468694781       20.5982054517        9.3368371192
  O        29.5633675867       17.0798875152        9.5759106335
  O        30.8783451278       20.8091062545        5.5738341406
  O        32.8664474682       20.5861214605        6.6650848845
  O        31.6734917165       18.2542765501        5.9995898476
  O        28.2883725590       18.6792038892        8.0844579661
  O        32.4905253362       14.2117338570        9.3298783783
  O        32.4051266917       14.2146292064        6.8227699616
  O        29.9053776694       14.4397019878        5.4959463483
  O        28.0058833700       14.6502020124        6.7357936497
  O        17.8892050923        1.9666105840       10.6628101939
  O        18.9562050757        3.5271521183        9.4079908693
  O        39.1685974734       34.1386624028        7.9971198488
  O        43.2801762668       33.0589571328       10.3316978003
  O        42.0343938082       31.5064812725        9.2415904032
  O        20.3177430253        1.0367672412        9.4802457314
  O        43.2760722077       33.1826350948        5.5748938407
  O        42.0052261820       31.5841310565        6.5829678495
  O        40.5789292645       33.7749174116        5.9358086893
  O        22.3674474316        1.3847484838        7.9980139336
  O        36.6727940008       35.0997088585        9.2333079474
  O        16.4457160606        0.0641458916        6.6682142262
  O        17.9365081326        2.0433633909        5.3263944898
  O        18.9190053579        3.5931389673        6.6659876111
  O        29.5330076000       18.7529144629        3.9090847503
  O        29.8583393458       18.9151122023       12.0674113192
  O        31.3832166650       16.4161822437        4.1487622917
  O        31.3061088364       16.4036099357       12.0039259064
  O        31.7646883852       16.6291830224        1.4197771591
  O        30.1977237524       15.5241665762       14.2325812157
  O        28.8534267541       18.3240593606       14.4999046283
  O        39.4568684958       35.2437775501        4.0019712474
  O        19.1415998885        0.0046050224       11.9905285603
  O        41.9695691966       35.1728512437        4.0872018280
  O        21.6913585068       -0.0691235172       11.8959097199
  O        51.3649128256       18.6142425257        4.0054418891
  O        10.7511123625       18.7472458620       11.9049452078
  O        50.0796045025       16.4128576524        4.0917744578
  O         9.5249025775       16.4829902163       11.9912237089
 Zr         9.2962458471       16.0526816101        6.1823518641
 Zr        49.8359298602       16.0066809067        9.7466459421
 Zr        22.0735214910        0.0304522420        6.1888499503
 Zr        42.4612433356       35.1539692953        9.8010518897
 Zr        29.6498709423       19.1048528933        6.4155961920
 Zr        29.5797846137       19.1539134654        9.9552396453
 Zr        11.0372146113       19.0521391820        9.8276202019
 Zr        11.0430569589       19.1549309412        6.2512798275
 Zr        31.3373401406       16.0861787209        9.8995791479
 Zr        31.3848554061       15.9993452361        6.2686813631
 Zr        18.6014358732       -0.0011699907        9.7633761503
 Zr        18.5069757384       -0.0075203084        6.2136670529
 Zr        12.3010307147       16.3233245425        7.9902299171
 Zr        48.6154727254       18.8328285953        8.0104982122
 Zr        20.3158081264        2.4740602731        7.9909027914
 Zr        40.6435607715       32.6872753705        7.9779500431
 Zr        28.3460784870       16.3363676151        8.0939280107
 Zr        32.6525917794       18.8103069510        8.0714104458
  H        29.2479098522       17.6018819103        1.6659477047
  H        29.5778502665       19.5349198391        3.3221657455
  H        31.1675015815       17.4898143593       14.8302627247
