     570
 i =      236, E =     -4745.5441172420
  C        11.8588643299       14.0536699132        5.7415604140
  C        12.4564583211       12.8906347911        5.0233956288
  C        11.7049092229       12.1719404640        4.0814476019
  C        12.2813469684       11.1097962555        3.3890401348
  C        13.6218356151       10.7398615041        3.6170354153
  C        14.3548324081       11.4431785045        4.5908120604
  C        13.7818915427       12.5081133866        5.2823541453
  C        14.2614901308        9.6492840954        2.8436109507
  C        14.2569806621        9.6572812193        1.4219015538
  C        13.7439155418       10.7594560997        0.6679967036
  C        49.1268468104       21.2330548687        5.8796422652
  C        48.5501215415       22.4010694937        5.1525250209
  C        49.3001606675       23.0684581231        4.1715976030
  C        48.7332367492       24.1076538600        3.4384484122
  C        47.4026768291       24.5092186070        3.6670634323
  C        46.6716775783       23.8602297999        4.6804562303
  C        47.2341333331       22.8152703527        5.4097378256
  C        46.7724057704       25.5869617156        2.8698366444
  C        46.7612171307       25.5573248382        1.4480687341
  C        47.2609628014       24.4421321945        0.7045971409
  C        14.8609688088        8.5709747592        0.7086251405
  C        14.8921865777        8.5972706348        3.5202362561
  C        49.1131619215       21.2033559338       10.1453941841
  C        48.5276488759       22.3645764511       10.8727893770
  C        49.2668903421       23.0255080903       11.8655319702
  C        48.6904828249       24.0600444650       12.5969772629
  C        47.3600094490       24.4566246328       12.3587877791
  C        46.6395328709       23.8114461848       11.3354964678
  C        47.2131745556       22.7755499115       10.6037559056
  C        46.7215313691       25.5316400459       13.1497611632
  C        46.7332457449       25.5280515460       14.5714702825
  C        47.2485733186       24.4287738347       15.3278354112
  C        40.6343861901       17.0988591147       15.3227517306
  C        40.6557926943       17.1417218777       12.5139228117
  C        11.8830825930       14.0866883286       10.2853151962
  C        12.4725578375       12.9108720738       10.9895686234
  C        11.7152292347       12.1778992607       11.9159928724
  C        12.2818919204       11.0955158041       12.5844835262
  C        13.6206153170       10.7216360450       12.3523774890
  C        14.3583614916       11.4368830516       11.3911593154
  C        13.7928284322       12.5179641357       10.7184034296
  C        14.2543224186        9.6249450655       13.1227997800
  C        14.2532069463        9.6449770317       14.5446519697
  C        13.7434194310       10.7539625616       15.2917372927
  C        22.5102576809        3.2451294396        5.7534721416
  C        23.2195006207        4.3542329182        5.0550050885
  C        24.2203991791        4.0826531200        4.1106696452
  C        24.8399004834        5.1280046091        3.4304749462
  C        24.4733617849        6.4666625555        3.6740999325
  C        23.5009753826        6.7298091450        4.6558834782
  C        22.8774297858        5.6865657630        5.3347783470
  C        25.0696236502        7.5785844299        2.8994574896
  C        25.0478890656        7.5680334234        1.4779195679
  C        24.3554976784        6.5621699351        0.7314403265
  C        38.2952719971       31.9273181304        5.8536225312
  C        37.5462507535       30.8386580256        5.1573543133
  C        36.5743339099       31.1472027814        4.1927001846
  C        35.9368686783       30.1309406355        3.4854807962
  C        36.2547569099       28.7782172570        3.7184249819
  C        37.1950892001       28.4768843812        4.7220654906
  C        37.8365621673       29.4924030555        5.4289130370
  C        35.6402818657       27.6928721356        2.9164076334
  C        35.6833097871       27.7116902034        1.4940891269
  C        36.4002268796       28.7126651427        0.7648814864
  C        25.6661326231        8.6404931217        0.7580715234
  C        25.6527659111        8.6609006522        3.5709055836
  C        38.3316492213       31.9614989685       10.1617583899
  C        37.6163153046       30.8904427608       10.9155727306
  C        36.6820982276       31.2041281459       11.9149640625
  C        36.0705011031       30.1904236292       12.6507010966
  C        36.3779995042       28.8359410372       12.4114930922
  C        37.2951776317       28.5320199634       11.3864534042
  C        37.9083208223       29.5423586371       10.6515841684
  C        35.7565652850       27.7400005495       13.1919255169
  C        35.7425407136       27.7359419892       14.6146424457
  C        36.4268648828       28.7253751136       15.3882488166
  C        46.1353556671       26.6207693135       15.2815857241
  C        46.0875877603       26.5799904934       12.4736889435
  C        22.4609752361        3.2568919549       10.2590758294
  C        23.1536752732        4.3665543376       10.9831923586
  C        24.1538644573        4.0825204076       11.9268369238
  C        24.7796380795        5.1137676790       12.6237883735
  C        24.4259992305        6.4596534966       12.4000729485
  C        23.4490680965        6.7368457862       11.4247950489
  C        22.8185515863        5.7059379054       10.7285784002
  C        25.0529512836        7.5602380513       13.1753448286
  C        25.0401252887        7.5577506774       14.5983960505
  C        24.3491708119        6.5589087687       15.3545591559
  C        26.6808632339       17.8767563868        5.7310333619
  C        25.3805251022       17.9620068599        4.9981847522
  C        25.1346528632       18.9494313733        4.0311105101
  C        23.9069999615       18.9970312365        3.3691146161
  C        22.8895991448       18.0599995765        3.6479172468
  C        23.1351958916       17.0961206315        4.6442448567
  C        24.3599242156       17.0450703401        5.3054001301
  C        21.6059351664       18.0509125409        2.8988100091
  C        21.5956829759       18.0022253389        1.4769116239
  C        22.7952946071       17.8532108881        0.7116348651
  C        34.4900252506       17.2258985454        5.9918858002
  C        35.7707630500       17.1693833741        5.2330722320
  C        35.9377601086       16.2116939555        4.2204145998
  C        37.1042124339       16.1897411983        3.4611223624
  C        38.1332075934       17.1225117239        3.6947462512
  C        37.9654633701       18.0628295742        4.7300504468
  C        36.7962379547       18.0926731083        5.4856280088
  C        39.3804673403       17.1172611376        2.8978715773
  C        39.3750833924       17.1231841452        1.4756268418
  C        38.1687674224       17.2429986325        0.7161399696
  C        20.3444747483       18.0089680615        0.7762328723
  C        20.3838958209       18.0571352292        3.5893311879
  C        34.5026316968       17.2145067152       10.1474295642
  C        35.7983439711       17.1468097689       10.8776903748
  C        36.0035687564       16.1623434690       11.8558745410
  C        37.1813883208       16.1461642266       12.5965548781
  C        38.1819485783       17.1118041762       12.3758522905
  C        37.9828115131       18.0722629325       11.3664827410
  C        36.8015099142       18.0958096753       10.6306752913
  C        39.4244607027       17.1259967678       13.1772038976
  C        39.3980405376       17.1275112142       14.5983117817
  C        38.1793666613       17.2423363497       15.3389602911
  C        35.0970307768       26.6600833375       15.3107243388
  C        35.1734107821       26.6696096754       12.5011414953
  C        26.5667910633       17.8287530405       10.3248423331
  C        25.2512860900       17.8787043505       11.0278650481
  C        24.9963560184       18.8779126789       11.9796377207
  C        23.7776286038       18.9097057506       12.6513279390
  C        22.7853841849       17.9404354417       12.3999752696
  C        23.0360840346       16.9656715011       11.4167970127
  C        24.2543881297       16.9331772410       10.7404428579
  C        21.5240241066       17.9268994292       13.1775688969
  C        21.5540575853       17.9349634224       14.5993089364
  C        22.7752857399       17.8200971440       15.3361659218
  C        14.0455192257       17.8274774454       10.2921025986
  C        15.3463726688       17.8836311781       11.0251262981
  C        15.6022565576       18.8956689460       11.9637458495
  C        16.8091131964       18.9218266744       12.6603392879
  C        17.7949822106       17.9383506913       12.4415087019
  C        17.5421127171       16.9472954656       11.4739791694
  C        16.3349902967       16.9172990284       10.7780392740
  C        19.0669400994       17.9333180595       13.2070425181
  C        19.0729495564       17.9535289698       14.6297625883
  C        17.8703936140       17.8683034867       15.3995633207
  C        46.8059417750       17.2181272101       10.1587198049
  C        45.5180671462       17.1542785132       10.9056491904
  C        45.3144897415       16.1712768892       11.8864314278
  C        44.1349120326       16.1499431609       12.6252090506
  C        43.1301865599       17.1120031945       12.4050365485
  C        43.3311362839       18.0749165630       11.3976319494
  C        44.5111309389       18.0998235833       10.6592687509
  C        41.8782656460       17.1194672091       13.1940785601
  C        41.8822489211       17.1104425543       14.6156114379
  C        43.0911173929       17.1980744377       15.3747529341
  C        20.3234987918       17.9754122486       15.3310707771
  C        20.2877734840       17.9061192353       12.5184663091
  C        46.7856435685       17.2297509139        5.8909549869
  C        45.4824451090       17.1199351474        5.1783622020
  C        45.2643770969       16.1157711179        4.2229649897
  C        44.0768527523       16.0852175989        3.4966229553
  C        43.0790401281       17.0559722267        3.7091637081
  C        43.2868622670       18.0291714584        4.7042953443
  C        44.4753807462       18.0659783874        5.4259295892
  C        41.8344540754       17.0770459365        2.9110928513
  C        41.8598072080       17.0881060449        1.4905876707
  C        43.0803885012       17.1850100590        0.7512271732
  C        46.1532686836       26.6372651926        0.7263459314
  C        46.1625917349       26.6561374523        3.5359932502
  C        14.0525122138       17.8402548602        5.7126030380
  C        15.3812789447       17.9380726532        5.0331569420
  C        15.6497616872       18.9694160257        4.1198195633
  C        16.8818394847       19.0313244582        3.4708158597
  C        17.8775453927       18.0615810325        3.7067256266
  C        17.6164242326       17.0599612424        4.6602404951
  C        16.3861632109       16.9978521391        5.3136978953
  C        19.1453298143       18.0543954677        2.9315031734
  C        19.1134493296       18.0157710323        1.5091764225
  C        17.8899836304       17.8963116623        0.7757244637
  C        28.8079759992       14.0921996130       10.3910583096
  C        28.1894279099       12.9242993381       11.0827438637
  C        28.9021586742       12.1996773820       12.0500466686
  C        28.2995973483       11.1275170970       12.7033645711
  C        26.9707140360       10.7562203292       12.4139461163
  C        26.2804040783       11.4625205296       11.4124361522
  C        26.8799924297       12.5351446651       10.7576472276
  C        26.2985844158        9.6777533391       13.1738887565
  C        26.2768355400        9.7095750766       14.5948973671
  C        26.7696500895       10.8276325372       15.3402277598
  C        32.1807553130       21.2495350760       10.1448506182
  C        32.7744073842       22.4163478480       10.8630316422
  C        32.0172148748       23.1016352028       11.8262335840
  C        32.5823865638       24.1430719028       12.5559393748
  C        33.9211036441       24.5275143435       12.3456585653
  C        34.6613066101       23.8601828868       11.3513767531
  C        34.0982922335       22.8136330955       10.6226149817
  C        34.5434184173       25.6032089105       13.1523037604
  C        34.5129124010       25.5776898002       14.5740987048
  C        33.9905429361       24.4647180071       15.3054067080
  C        25.6684517650        8.6307424045       15.3131873631
  C        25.6688811184        8.6227914533       12.4999349048
  C        32.0184231676       21.1625111382        5.7974991840
  C        32.5866083852       22.3370263421        5.0750045665
  C        31.8601258717       23.0050071457        4.0762014880
  C        32.4373774376       24.0605159563        3.3721749159
  C        33.7565031118       24.4780456104        3.6428000687
  C        34.4618120558       23.8259523095        4.6729896484
  C        33.8894068906       22.7694955028        5.3755425437
  C        34.4063127709       25.5671687632        2.8744379197
  C        34.4412592177       25.5601869265        1.4518943290
  C        33.9549673814       24.4571138814        0.6816725756
  C        40.6223540152       17.0918978684        0.7672867963
  C        40.6046956936       17.1095671159        3.5759346240
  C        28.7103186511       14.0962246412        5.8199241791
  C        28.0859480586       12.9582870039        5.0828544454
  C        28.8203726759       12.2475849182        4.1204744917
  C        28.2345544632       11.1945964210        3.4232465268
  C        26.8973986639       10.8209679073        3.6646824768
  C        26.1785516806       11.5180663900        4.6539773298
  C        26.7624338207       12.5748866798        5.3511701326
  C        26.2592205591        9.7264281536        2.8935630383
  C        26.2584938787        9.7342112720        1.4714542152
  C        26.7589858081       10.8408936579        0.7162503412
  C        18.1353346039        3.1810114501       10.3172223487
  C        17.4062087229        4.2782423631       11.0158608057
  C        16.3905596953        4.0000213747       11.9435137700
  C        15.7429580022        5.0400974337       12.6069655969
  C        16.0948733871        6.3837979165       12.3670891584
  C        17.0841677303        6.6531673020       11.4031865390
  C        17.7331491918        5.6157392745       10.7381868606
  C        15.4707276828        7.4915903059       13.1301233927
  C        15.4861180034        7.4909298198       14.5518297084
  C        16.1877680511        6.4973741321       15.3049898901
  C        42.9457812723       31.8595059518       10.0728867107
  C        43.6461150466       30.7718310693       10.8167602000
  C        44.5914037795       31.0931360147       11.8030948745
  C        45.1970940662       30.0875714115       12.5507366533
  C        44.8709067460       28.7344628181       12.3357094055
  C        43.9453651677       28.4201562835       11.3222037439
  C        43.3365765428       29.4252991954       10.5741436726
  C        45.4884282654       27.6551644767       13.1389467745
  C        45.4927062805       27.6809141075       14.5606407159
  C        44.8057247079       28.6889938981       15.3073088420
  C        14.8572260963        8.5634639208       15.2641925507
  C        14.8754002263        8.5633254592       12.4515163914
  C        42.9465114563       31.9615827299        5.8090214195
  C        43.6918286511       30.8855093697        5.0957209605
  C        44.6560844571       31.1914685958        4.1230702496
  C        45.2776669617       30.1719121017        3.4053779512
  C        44.9542912884       28.8215281652        3.6432873418
  C        44.0212654472       28.5238299445        4.6545033511
  C        43.3929343355       29.5405560743        5.3666746659
  C        45.5632670980       27.7241567784        2.8579721275
  C        45.5334139785       27.7174632447        1.4366717565
  C        44.8271044657       28.7076862032        0.6837001786
  C        35.0638357110       26.6496766480        0.7562936132
  C        35.0192873919       26.6198765781        3.5674868151
  C        18.1485764742        3.2470745463        5.7066477804
  C        17.4300752627        4.3438994351        4.9973595777
  C        16.4150671734        4.0527323080        4.0735269736
  C        15.7668867811        5.0834410255        3.3981458403
  C        16.1215308165        6.4286604814        3.6210294702
  C        17.1127215303        6.7119242579        4.5785198650
  C        17.7602616358        5.6829500202        5.2582983661
  C        15.4911130195        7.5244133948        2.8486221988
  C        15.4971483047        7.5078441209        1.4274972607
  C        16.1940000808        6.5062052583        0.6808018954
  H        10.6728375564       12.4661878545        3.9042483411
  H        11.6951403412       10.5514833995        2.6623018082
  H        15.3918029841       11.1684835623        4.7727316048
  H        14.3512212912       13.0712452210        6.0179635741
  H        13.3768801369       11.6315645320        1.2013232432
  H        50.3228717387       22.7484217384        3.9868627144
  H        49.3197115840       24.6229509781        2.6808804523
  H        45.6421177933       24.1608370458        4.8635180108
  H        46.6630667335       22.2898704431        6.1716824980
  H        47.6293252163       23.5756882014        1.2463053946
  H        14.8723650090        8.5884503938        4.6085368029
  H        50.2869982611       22.7027946770       12.0603512344
  H        49.2688763550       24.5756601916       13.3603737284
  H        45.6100345414       24.1084383184       11.1465623407
  H        46.6523019397       22.2531469943        9.8323918493
  H        47.6071247943       23.5515592876       14.7969344508
  H        40.6626511236       17.1160487542       11.4259802435
  H        48.6871932916       14.0947197663        7.8000751607
  H        10.6818199867       12.4670807993       12.0936043544
  H        11.6901976397       10.5252893326       13.2974011606
  H        15.3936981633       11.1588280360       11.2049455144
  H        14.3649392893       13.0870724439        9.9894895379
  H        13.3766037895       11.6225838006       14.7530951888
  H        47.9301060575       14.2185318635        9.7104039457
  H        47.7800687902       14.3734871525        6.4953263355
  H        49.0840431339       18.5520801923       10.8673459683
  H        10.4161026915       14.1343215944        7.9985741804
  H        24.4905881063        3.0463986377        3.9198522963
  H        25.6164978677        4.9177043430        2.6982954373
  H        23.2106728363        7.7602194448        4.8502340856
  H        22.1043481812        5.8798479895        6.0743635337
  H        23.7970675252        5.8030704510        1.2713578262
  H        36.3435697938       32.1918024583        3.9973969047
  H        35.1855282929       30.3771199195        2.7382717711
  H        37.4500200418       27.4362317022        4.9119118791
  H        38.5881188108       29.2642994072        6.1811896727
  H        36.9605806887       29.4609587340        1.3177169691
  H        25.6828240662        8.6464513115        4.6589127470
  H        36.4538378507       32.2492736501       12.1114487878
  H        35.3385484738       30.4411902947       13.4153266993
  H        37.5475239001       27.4910145095       11.1956164302
  H        38.6361392430       29.3109586519        9.8775983724
  H        37.0085746070       29.4830968850       14.8709815342
  H        46.1089879321       26.5872908145       11.3856533621
  H        44.6683980896       35.1162354986        7.8138851698
  H        24.4320237334        3.0447076759       12.0960586999
  H        25.5587409765        4.8852760548       13.3479445938
  H        23.1637603659        7.7709251152       11.2423025409
  H        22.0485956786        5.9183896207        9.9904388889
  H        23.7850906526        5.7980165519       14.8229661090
  H        44.9542793589       34.3908162960        9.6954493308
  H        44.9021214647       34.2070397258        6.4904269724
  H        40.6669345349       33.2094602958       10.8533431091
  H        23.1502867134        1.9581118552        8.0056208076
  H        25.9127538421       19.6781902800        3.8141496552
  H        23.7227447131       19.7707363345        2.6267190049
  H        22.3651428331       16.3612208038        4.8698816663
  H        24.5548986238       16.2875707249        6.0604662199
  H        23.7380009741       17.7315149418        1.2367015192
  H        35.1326980345       15.5045823812        4.0329112087
  H        37.2329104978       15.4398875924        2.6837019046
  H        38.7520310230       18.7919414174        4.9130101127
  H        36.6508013664       18.8341321465        6.2678152087
  H        37.2280426820       17.3665226230        1.2450351508
  H        20.3973895706       18.1091283377        4.6767300781
  H        35.2194549130       15.4305394511       12.0345504539
  H        37.3396766930       15.3815919500       13.3539232084
  H        38.7504811321       18.8235735863       11.1934107296
  H        36.6248212172       18.8551172216        9.8726146906
  H        37.2468468324       17.3647146095       14.7951642016
  H        35.1637952799       26.6939121212       11.4131011269
  H        28.5154927182       21.0979604870        8.0012980633
  H        25.7673410083       19.6189674648       12.1783160583
  H        23.5803242288       19.6898709051       13.3832749148
  H        22.2799391051       16.2094031608       11.2160700669
  H        24.4624399778       16.1681129316        9.9962079262
  H        23.7025270840       17.6736663790       14.7903095409
  H        28.9827644272       21.7227712227        9.7818541672
  H        29.0803834295       21.7803837540        6.5905001144
  H        32.1493685259       18.5375893612       10.9952881011
  H        27.4014813578       19.0825040584        8.0805437719
  H        14.8453607603       19.6587920891       12.1307316164
  H        17.0039461538       19.7149079565       13.3791080738
  H        18.2917775270       16.1788176462       11.2966992372
  H        16.1300665280       16.1403358778       10.0452756784
  H        16.9245932546       17.7471223301       14.8793478905
  H        46.0977108089       15.4377871394       12.0625544021
  H        43.9763844052       15.3798349857       13.3769088651
  H        42.5625980899       18.8252812213       11.2242686515
  H        44.6833037958       18.8569177854        9.8978485976
  H        44.0335467523       17.3091566104       14.8461838467
  H        20.2749717494       17.9224344811       11.4300893230
  H        46.0415520649       15.3747500152        4.0506072129
  H        43.9095911160       15.3068109394        2.7553633513
  H        42.5202880899       18.7823079936        4.8741676929
  H        44.6583540093       18.8361714149        6.1711437620
  H        44.0147016778       17.2847659384        1.2959656496
  H        46.1995678027       26.6826628414        4.6234368229
  H        52.7409162382       21.0625796280        8.1946398449
  H        14.8815376834       19.7166371171        3.9330483815
  H        17.0836240695       19.8339528897        2.7645519059
  H        18.3740292611       16.3030546427        4.8529807270
  H        16.1736652536       16.2098985971        6.0324174783
  H        16.9591085552       17.7966820579        1.3258511902
  H        52.3213936244       21.6728653700        6.2946219287
  H        52.0126722655       21.7014773727        9.4957060287
  H        49.0675261739       18.6071600909        5.2042376608
  H        13.2476456368       19.0169726225        7.9788059179
  H        29.9267520484       12.4891218782       12.2741123624
  H        28.8544120039       10.5642367337       13.4505344225
  H        25.2534756586       11.1863070497       11.1820907147
  H        26.3441325447       13.1014908912        9.9999201001
  H        27.1308716908       11.6977779415       14.8004426708
  H        30.9890932572       22.7919021001       11.9983890443
  H        31.9893676438       24.6728598917       13.2982303738
  H        35.6978370817       24.1455829601       11.1836366732
  H        34.6773060072       22.2734242973        9.8771288467
  H        33.6437458406       23.5946029746       14.7552542380
  H        25.7049195852        8.6005832901       11.4121513414
  H        30.8458999878       22.6800433764        3.8555861503
  H        31.8654626042       24.5770828177        2.6043986661
  H        35.4822162841       24.1341445553        4.8912531718
  H        34.4434713198       22.2472090678        6.1517847284
  H        33.5806896037       23.5803753699        1.2021606339
  H        40.5982835331       17.0755862248        4.6636576435
  H        32.5134714000       14.1343925508        8.2557310473
  H        29.8547822197       12.5276245576        3.9369847762
  H        28.8131908534       10.6421530036        2.6861192981
  H        25.1438908649       11.2427279718        4.8480032958
  H        26.2028289380       13.1276634503        6.1021407018
  H        27.1112477238       11.7208045017        1.2468354912
  H        33.3013200170       14.2103854249        6.4496555777
  H        33.4072635859       14.4045308712        9.6032495553
  H        32.1260247348       18.5365972670        5.0773227899
  H        30.2327456429       14.1908845669        8.0773435457
  H        16.1184462473        2.9635553236       12.1300402647
  H        14.9535463940        4.8208516159       13.3227097225
  H        17.3665976258        7.6860143063       11.2099261808
  H        18.5151270583        5.8183121461       10.0102622700
  H        16.7544090829        5.7400948352       14.7714938049
  H        44.8276172711       32.1402094599       11.9774261662
  H        45.9368311320       30.3413481091       13.3067968747
  H        43.6829520804       27.3780602503       11.1518147815
  H        42.6003538160       29.1898878708        9.8091210854
  H        44.2303875789       29.4367993898       14.7690509530
  H        14.8514791219        8.5464947135       11.3632995384
  H        44.8993706311       32.2341602591        3.9313557874
  H        46.0243164394       30.4132025048        2.6519075794
  H        43.7647085202       27.4840616570        4.8464105889
  H        42.6468222856       29.3176510798        6.1254688533
  H        44.2686755078       29.4706443550        1.2182555651
  H        34.9688043062       26.6289239741        4.6547731150
  H        36.6053197643       35.1341064163        8.1805649400
  H        16.1439846706        3.0131822205        3.9036542712
  H        14.9746930692        4.8566982050        2.6878856626
  H        17.3962291776        7.7473674446        4.7555335856
  H        18.5429928203        5.8933519351        5.9832263624
  H        16.7655152977        5.7560203469        1.2192270653
  H        36.2790283838       34.4822881511        6.2730015341
  H        36.3810347481       34.2089728956        9.4992796501
  H        40.5791717595       33.2019147232        5.1543732042
  H        17.4710852265        1.9472566323        7.9741443221
  H        28.9714000509       19.2282553872       12.5069108272
  H        31.1114544767       15.0291789712        3.9909921380
  H        31.4180482736       15.5133264650       12.5157385712
  H        27.9192373993       17.7970784644       14.4626311957
  H        29.3374476227       14.9072472928       13.9052248519
  H        31.8307386479       16.4271047220        0.7499806392
  H        28.5973831985       17.5559401270        1.6074594486
  H        31.2676989589       19.3392253571       13.6342242154
  H        18.8536998445        0.8691020237       12.3351960778
  H        40.5281698620       35.2288869853        3.9520392918
  H        42.3245355443       34.4193531132        3.5903938268
  H        22.0878900150        0.6920506661       12.3515851425
  H        11.5969335559       18.7132539008       12.3823177183
  H        52.2648133385       18.4307550004        3.6768386498
  H        49.2552287657       16.4769537608        3.5846430765
  H        10.1499801552       15.7981610712       12.2933363357
  H        50.8498718255       17.6922330643        3.9543681994
  H        10.0461026884       17.3943782039       12.0520748604
  H        20.2150904015        0.0023907857       12.0419426688
  H        39.1837916834       36.1244556219        3.6865015760
 Ni        30.5259738678       16.8392501610        2.8303878651
 Ni        29.7187474569       16.1369524665       -0.0825454154
 Ni        30.0956202214       18.3615405427       -0.4972207766
 Ni        30.1016933327       17.3261244981       13.0757568717
  O        10.6501233228       14.3650414866        5.4858525028
  O        12.6133725048       14.6577071832        6.5839132362
  O        49.1481424150       16.8459310450        7.9897742512
  O        50.3503022068       20.9357421511        5.6479799621
  O        48.3485817141       20.5933580222        6.6659384576
  O        11.0519840182       17.0536488404        6.5008377890
  O        50.3210399147       20.8817060547       10.4068182908
  O        48.3467557756       20.5867944334        9.3271317288
  O        49.5442030233       18.2484394098       10.0681793767
  O        12.3594935641       18.6244181917        7.9994687592
  O        48.6933322547       14.1485069277        6.7513336950
  O         8.2099862607       14.2102758071        9.3224506820
  O        10.7355208544       14.5066893122       10.6642953950
  O        12.5719469660       14.5829706951        9.3283359733
  O        22.8446939170        2.0444636410        5.4871448912
  O        21.6043025717        3.5916378578        6.5911832363
  O        42.0580599540       34.1373064102        7.9790069386
  O        37.9811133826       33.1362705131        5.5721201125
  O        39.2167562789       31.5748149477        6.6650744760
  O        20.3084697112        1.0396259702        6.5021760716
  O        38.0247309862       33.1856439890       10.4155923649
  O        39.2181154762       31.5828221648        9.3277592410
  O        40.6522360501       33.7692923620       10.0601318096
  O        18.2556546779        1.3759247240        7.9968334053
  O        44.6221745262       35.1006096695        6.7587280672
  O        24.2053921518        0.0000418393        9.3207663638
  O        22.7532476099        2.0585323341       10.5844094752
  O        21.6247908102        3.5965473097        9.3436196503
  O        27.6318355635       18.6898311346        5.4111835007
  O        26.7407834507       17.0032469913        6.6591092982
  O        30.6699510418       19.4078863478        8.0683567803
  O        33.6633108540       16.2757859598        5.8253009152
  O        34.3016239217       18.2542137395        6.7421406686
  O        29.5769179979       17.0630624830        6.5874149009
  O        33.6662833163       16.2690623068       10.3275049004
  O        34.3105641959       18.2445508581        9.4084374222
  O        31.7066796660       18.3114538908       10.1593953696
  O        30.3253033900       15.1578004498        8.0858252357
  O        28.5520006988       21.0302946136        6.9124648461
  O        28.5138695604       20.9579877099        9.4066342800
  O        27.4554774550       18.6777038116       10.6592996930
  O        26.6931594809       16.9291583498        9.4134114411
  O        13.1482013548       18.6931908803       10.5875193331
  O        13.9204029317       16.9165741764        9.4061881505
  O        50.5963033405       19.3501359426        8.0200365518
  O        47.6843625373       16.3264046448       10.4167016351
  O        46.9518979111       18.1757035875        9.3248273739
  O        11.0704850475       17.0150421252        9.4894632718
  O        47.6768322326       16.3351497666        5.6537077706
  O        46.9280204249       18.2356185239        6.6646945181
  O        49.5691999782       18.3176792156        5.9823191766
  O        10.3187819924       15.1001730447        7.9970156952
  O        52.6707444977       21.0278223012        9.2418114320
  O        12.1468058697       20.8911435362        6.6731846558
  O        13.1099473266       18.6141705515        5.3253631061
  O        13.9604882530       16.9884652560        6.6628303089
  O        29.9904521754       14.4413321513       10.7298637321
  O        28.0886922879       14.6548795514        9.4919580317
  O        32.1071312343       16.9198262874        8.0735517344
  O        30.9698705370       20.9569997719       10.4059254089
  O        32.9494210784       20.6083867882        9.3375337899
  O        29.5731260727       17.0784695716        9.5810127237
  O        30.8082310143       20.7996449617        5.4992352354
  O        32.7752180171       20.5917923282        6.6479526103
  O        31.6009204019       18.2365556435        5.8361396958
  O        28.2859573177       18.6806744121        8.0829284447
  O        32.4909547418       14.2105728030        9.3283218198
  O        32.4051230387       14.2097605463        6.8270266682
  O        29.9002273072       14.4314666034        5.5036104085
  O        28.0058009311       14.6492129530        6.7408705311
  O        17.8892746752        1.9665721785       10.6628385547
  O        18.9562229135        3.5270996267        9.4080398031
  O        39.1686132766       34.1385898784        7.9970962930
  O        43.2801636923       33.0589459572       10.3316653591
  O        42.0342718961       31.5065299124        9.2415877551
  O        20.3177286162        1.0366756280        9.4803603200
  O        43.2759916671       33.1825852254        5.5749341830
  O        42.0051415767       31.5841516446        6.5830049353
  O        40.5791613974       33.7752162824        5.9360543725
  O        22.3673523295        1.3846187535        7.9980388106
  O        36.6727696386       35.0997231404        9.2332554436
  O        16.4457362719        0.0641918371        6.6682486547
  O        17.9365227970        2.0433930338        5.3263821060
  O        18.9189585266        3.5930943685        6.6660338997
  O        29.7811949824       19.0506011632       11.9767953767
  O        31.5060831429       15.9123648848        4.1510131453
  O        31.4314341609       16.3327921191       11.9821552929
  O        32.2697087616       16.7759093426        1.5765491227
  O        29.5233125646       17.4403728174        1.3317828551
  O        30.0731078686       15.4579606159       14.2311503484
  O        31.4283844564       18.5346834387       14.1667492374
  O        28.6352847445       18.3859233743       14.1686452649
  O        39.4568524774       35.2437676894        4.0019968572
  O        19.1416468113        0.0046170602       11.9905189921
  O        41.9695397610       35.1727793399        4.0872627101
  O        21.6913301557       -0.0692746382       11.8958774299
  O        51.3652518209       18.6141719453        4.0054855454
  O        10.7510914207       18.7472063916       11.9048469125
  O        50.0797715693       16.4128524640        4.0917761890
  O         9.5244439303       16.4830178408       11.9912252182
 Zr         9.2965471388       16.0526402079        6.1825681695
 Zr        49.8363598984       16.0064782934        9.7463875925
 Zr        22.0734994504        0.0301741732        6.1889420038
 Zr        42.4612442717       35.1537402461        9.8010435627
 Zr        29.6216550190       19.0927042183        6.3844300911
 Zr        29.5781549339       19.1744869159        9.9077348642
 Zr        11.0377642797       19.0515340515        9.8274203773
 Zr        11.0441304149       19.1543604616        6.2507836220
 Zr        31.3678493388       16.0953848388        9.8810170386
 Zr        31.4086016817       16.0037909457        6.3028017391
 Zr        18.6012774571       -0.0012007449        9.7633970588
 Zr        18.5069497033       -0.0074007884        6.2135947614
 Zr        12.3028957108       16.3238655772        7.9895335262
 Zr        48.6161791463       18.8328896673        8.0102477690
 Zr        20.3152940550        2.4738096994        7.9911296623
 Zr        40.6435337524       32.6870900746        7.9778830676
 Zr        28.3413424457       16.3456425726        8.0936266008
 Zr        32.6677420121       18.8481819978        8.0785493327
  H        29.3682447657       16.9265948879        3.6855279016
  H        32.5692705849       17.6662279088        1.3166086366
