     569
 i =      201, E =     -4729.5302810499
  C        11.8586293493       14.0535471133        5.7416303432
  C        12.4561013155       12.8905350774        5.0233373500
  C        11.7044815422       12.1718912042        4.0814066509
  C        12.2808177158       11.1096835544        3.3890148455
  C        13.6212623878       10.7395719058        3.6169997212
  C        14.3542994702       11.4428165188        4.5908097729
  C        13.7814664978       12.5077920598        5.2823685342
  C        14.2608058916        9.6489240912        2.8435861121
  C        14.2562098034        9.6568776171        1.4218782529
  C        13.7430977601       10.7590071894        0.6679394826
  C        49.1266865183       21.2331859757        5.8797330631
  C        48.5498987783       22.4010007058        5.1525909564
  C        49.3000159713       23.0684704297        4.1717432472
  C        48.7330978265       24.1076143957        3.4385536122
  C        47.4024916088       24.5091475265        3.6670333095
  C        46.6714481352       23.8601280401        4.6803920716
  C        47.2338805221       22.8152120963        5.4097454055
  C        46.7722854221       25.5868638799        2.8697470283
  C        46.7614416657       25.5573477038        1.4479786413
  C        47.2614577373       24.4423028867        0.7044675294
  C        14.8601626226        8.5705365275        0.7086205735
  C        14.8914718329        8.5968951376        3.5202292814
  C        49.1130518541       21.2033992023       10.1453468856
  C        48.5276900549       22.3647670467       10.8723970099
  C        49.2670030548       23.0256284721       11.8651688709
  C        48.6906455516       24.0601720931       12.5966074279
  C        47.3601356596       24.4567682521       12.3585706399
  C        46.6396535397       23.8116749281       11.3352097682
  C        47.2131915577       22.7757633649       10.6034172270
  C        46.7217046518       25.5317382214       13.1496182908
  C        46.7336182594       25.5281638044       14.5713245569
  C        47.2491808611       24.4290076134       15.3277045287
  C        40.6145045877       17.0609815329       15.3175123905
  C        40.6303320552       17.0953035830       12.5073714365
  C        11.8828492513       14.0865427152       10.2854525132
  C        12.4720878119       12.9105932706       10.9895806568
  C        11.7146252181       12.1776018960       11.9158989716
  C        12.2811291791       11.0951046509       12.5843321634
  C        13.6198412538       10.7211055233       12.3523179534
  C        14.3577147850       11.4363768847       11.3912099734
  C        13.7923660556       12.5175928670       10.7185208639
  C        14.2534580179        9.6243867621       13.1227738440
  C        14.2523318943        9.6444571808       14.5446189027
  C        13.7425232907       10.7534452954       15.2916816179
  C        22.5102865748        3.2440519995        5.7531492908
  C        23.2220201208        4.3505267732        5.0527287785
  C        24.2179377092        4.0724788990        4.1050627526
  C        24.8419145382        5.1136184724        3.4228429497
  C        24.4852852836        6.4544032569        3.6685450983
  C        23.5174087286        6.7240554668        4.6530142840
  C        22.8888260841        5.6847038038        5.3335698825
  C        25.0889500709        7.5616833054        2.8931158650
  C        25.0614360396        7.5543193928        1.4717410700
  C        24.3571594048        6.5560226064        0.7262159470
  C        38.2975293257       31.9269919116        5.8519018589
  C        37.5553740436       30.8379060805        5.1517856875
  C        36.5888653733       31.1440283639        4.1810204423
  C        35.9580829319       30.1257477566        3.4711159584
  C        36.2781866115       28.7742297813        3.7076786694
  C        37.2135697064       28.4756172640        4.7166840536
  C        37.8482303986       29.4928250505        5.4262545568
  C        35.6695216567       27.6853496659        2.9077164222
  C        35.7110504141       27.7007876711        1.4858486839
  C        36.4214724577       28.7037747148        0.7534772199
  C        25.6871674393        8.6222461278        0.7514467579
  C        25.6856310719        8.6368718686        3.5636820656
  C        38.3303925885       31.9602994721       10.1607814244
  C        37.6143573021       30.8874218395       10.9107107395
  C        36.6813542683       31.1968595219       11.9126506789
  C        36.0717972070       30.1800002214       12.6457807651
  C        36.3800198027       28.8262956133       12.4020579711
  C        37.2940499088       28.5268409792       11.3728277898
  C        37.9052987258       29.5401590730       10.6406015195
  C        35.7655474071       27.7274136320       13.1839726462
  C        35.7594465009       27.7227605863       14.6067856941
  C        36.4432111691       28.7153694832       15.3768061018
  C        46.1355941810       26.6207832854       15.2814739746
  C        46.0875565332       26.5799918656       12.4735764975
  C        22.4595654287        3.2553307962       10.2575091928
  C        23.1514255362        4.3646409382       10.9813224005
  C        24.1519446988        4.0794923335       11.9238955894
  C        24.7775809813        5.1104373488       12.6206015136
  C        24.4227882163        6.4557066816       12.3965524052
  C        23.4452530956        6.7341953794       11.4226706131
  C        22.8147304048        5.7034268198       10.7268095283
  C        25.0524386346        7.5542546169       13.1704885413
  C        25.0433262334        7.5498330203       14.5930812489
  C        24.3464500533        6.5552128262       15.3494217534
  C        26.6143777796       17.8524912685        5.7848473052
  C        25.3067470991       17.9069212244        5.0656565627
  C        25.0443911506       18.9158743937        4.1248226062
  C        23.8326027699       18.9397943437        3.4371756897
  C        22.8464484015       17.9592078916        3.6682925417
  C        23.1039915532       16.9743602191        4.6410225713
  C        24.3176263566       16.9444579765        5.3263850253
  C        21.5749039752       17.9493066158        2.9007991177
  C        21.5772297071       17.9390713634        1.4779753036
  C        22.7843326054       17.8267347368        0.7182570177
  C        34.4382298271       17.1939462958        5.9523012848
  C        35.7218346686       17.1370249302        5.1933487873
  C        35.9195855838       16.1554492489        4.2095192245
  C        37.0967405108       16.1323684970        3.4654483033
  C        38.1086774260       17.0876116985        3.6849717384
  C        37.9108730631       18.0521942669        4.6918112918
  C        36.7311710080       18.0820794382        5.4322976968
  C        39.3631879658       17.0840297060        2.8956977759
  C        39.3583738229       17.0833456133        1.4733443330
  C        38.1503417180       17.1931823326        0.7153001133
  C        20.3312269399       17.9556318360        0.7678418253
  C        20.3494090006       17.9445340569        3.5816184296
  C        34.4376419873       17.2390928880       10.1890237528
  C        35.7386965397       17.1365144545       10.9119521932
  C        35.9459451617       16.1475169094       11.8853350038
  C        37.1365709768       16.1106917807       12.6072122197
  C        38.1495085202       17.0626441233       12.3777583682
  C        37.9482178991       18.0252976343       11.3705811363
  C        36.7575164384       18.0662054762       10.6507015114
  C        39.3986923341       17.0731757435       13.1726773121
  C        39.3764193254       17.0788888914       14.5945872011
  C        38.1590454860       17.1896040856       15.3383166839
  C        35.1231046152       26.6434569029       15.3063489249
  C        35.1827515876       26.6547910566       12.4962883802
  C        26.5734284495       17.8295002370       10.3242839110
  C        25.2582950812       17.8806115868       11.0295488256
  C        24.9928330350       18.8960438013       11.9610119834
  C        23.7758223303       18.9267409127       12.6364173268
  C        22.7945129657       17.9425602857       12.4031624860
  C        23.0539739319       16.9522717162       11.4384017543
  C        24.2718289914       16.9191699998       10.7616554090
  C        21.5308757694       17.9289461021       13.1767744149
  C        21.5543457604       17.9269948641       14.5984539533
  C        22.7728933426       17.8208591264       15.3416611982
  C        14.0471647377       17.8298142067       10.2884521562
  C        15.3523469418       17.8901512406       11.0130466444
  C        15.6078274952       18.8966095910       11.9576089281
  C        16.8168898916       18.9216835658       12.6503061426
  C        17.8052889310       17.9431568548       12.4208522058
  C        17.5546065004       16.9607366502       11.4441578135
  C        16.3448860083       16.9312291740       10.7528921134
  C        19.0743714025       17.9311061419       13.1906343593
  C        19.0726256573       17.9321627681       14.6132737230
  C        17.8652688665       17.8314518661       15.3736675495
  C        46.8016415825       17.2169048403       10.1589454283
  C        45.5094012705       17.1471689178       10.9031418713
  C        45.3067349137       16.1637609434       11.8843223491
  C        44.1237124516       16.1337420478       12.6185943942
  C        43.1104733437       17.0868962420       12.3955233792
  C        43.3105239348       18.0501600175       11.3876691287
  C        44.4944766380       18.0839881079       10.6539032625
  C        41.8557505155       17.0855453590       13.1848106162
  C        41.8612058198       17.0810096898       14.6075648714
  C        43.0696180205       17.1805262038       15.3666215761
  C        20.3190184941       17.9484635615       15.3225748917
  C        20.2992035729       17.9114776545       12.5095123185
  C        46.7826612290       17.2305514513        5.8877969038
  C        45.4784315004       17.1204520434        5.1720858365
  C        45.2602363648       16.1167351834        4.2156862080
  C        44.0709860428       16.0821951225        3.4910867584
  C        43.0679353959       17.0481295431        3.7043960650
  C        43.2770369822       18.0224206104        4.6987444499
  C        44.4675055534       18.0631912064        5.4187313462
  C        41.8194227712       17.0607550343        2.9081761267
  C        41.8427092080       17.0665165354        1.4865019136
  C        43.0608877779       17.1705977949        0.7436015787
  C        46.1533894110       26.6372107816        0.7262332605
  C        46.1621964885       26.6559048438        3.5358848654
  C        14.0449133560       17.8317260007        5.7086935631
  C        15.3654277079       17.9069443639        5.0173807109
  C        15.6386521910       18.9260696369        4.0928656739
  C        16.8673813122       18.9656956218        3.4378112764
  C        17.8501750580       17.9852717027        3.6814445734
  C        17.5834672778       16.9943507491        4.6436572902
  C        16.3568265164       16.9544200136        5.3025100323
  C        19.1178639288       17.9650537885        2.9132726200
  C        19.0954226865       17.9485618818        1.4916561388
  C        17.8763516104       17.8388189865        0.7498780649
  C        28.8057801780       14.0912237524       10.3995411527
  C        28.1941246902       12.9155112448       11.0817639996
  C        28.9187546924       12.1678983859       12.0216817342
  C        28.3183026045       11.0926933053       12.6713527626
  C        26.9793688391       10.7420292514       12.4051967551
  C        26.2767926073       11.4687090485       11.4273518946
  C        26.8749497481       12.5440577714       10.7759377739
  C        26.3085042870        9.6641326599       13.1669446086
  C        26.2966576389        9.6915672481       14.5879037146
  C        26.8062659505       10.8022230298       15.3329367751
  C        32.1805360631       21.2379191620       10.1469522071
  C        32.7774486404       22.4013954841       10.8672461188
  C        32.0276861261       23.0843620508       11.8377089225
  C        32.5982767483       24.1234842581       12.5664661330
  C        33.9349403781       24.5097199537       12.3468451042
  C        34.6672548385       23.8458644963       11.3442464102
  C        34.0991871421       22.8008450293       10.6172381455
  C        34.5611520425       25.5853102246       13.1508461744
  C        34.5401623616       25.5582170323       14.5729752959
  C        34.0282053585       24.4422410217       15.3074791936
  C        25.6826670114        8.6163863665       15.3069083936
  C        25.6698543008        8.6147321584       12.4938168228
  C        32.0805165140       21.1904789843        5.8734126437
  C        32.6509922229       22.3518669701        5.1307228748
  C        31.9246399169       22.9833611927        4.1094434949
  C        32.4957347414       24.0267536560        3.3826188487
  C        33.8075593776       24.4657115596        3.6534113286
  C        34.5146545225       23.8447495924        4.7015216524
  C        33.9485300680       22.7997306086        5.4260539585
  C        34.4487119754       25.5517963541        2.8742095398
  C        34.4826111923       25.5410816029        1.4515531548
  C        34.0005029864       24.4340997661        0.6841684395
  C        40.6047797427       17.0583600952        0.7631808757
  C        40.5882252995       17.0882531073        3.5736898273
  C        28.7359413744       14.0650195442        5.8196262686
  C        28.1256452967       12.9231008938        5.0779621357
  C        28.8689778511       12.2053973046        4.1280946737
  C        28.2842756110       11.1526913503        3.4280156994
  C        26.9426538204       10.7876387641        3.6573423212
  C        26.2164907808       11.4908571411        4.6366833829
  C        26.7978450286       12.5466627879        5.3354584564
  C        26.2999897066        9.6970723342        2.8852908584
  C        26.2942874968        9.7081625017        1.4637595485
  C        26.8035196051       10.8112720610        0.7090421711
  C        18.1353168223        3.1807476399       10.3171961815
  C        17.4058864076        4.2779960710       11.0157914147
  C        16.3902903792        3.9996034421       11.9434242498
  C        15.7424902212        5.0395728013       12.6068901670
  C        16.0942341519        6.3833132503       12.3670949256
  C        17.0834644989        6.6528568642       11.4031782109
  C        17.7326232782        5.6155322327       10.7381596738
  C        15.4698934594        7.4910295335       13.1301136597
  C        15.4853074337        7.4904458440       14.5518276953
  C        16.1868687824        6.4968501767       15.3050188207
  C        42.9457227436       31.8594125916       10.0728561884
  C        43.6460137280       30.7717316431       10.8168052427
  C        44.5916784146       31.0930115239       11.8027694372
  C        45.1973521410       30.0874565458       12.5504353114
  C        44.8707467693       28.7344142496       12.3356873302
  C        43.9447492253       28.4200899429       11.3226261842
  C        43.3359737658       29.4252582929       10.5745827558
  C        45.4884023378       27.6551370417       13.1388657180
  C        45.4927601615       27.6808417776       14.5605613577
  C        44.8056725869       28.6888759497       15.3072027687
  C        14.8563754304        8.5629697458       15.2641807262
  C        14.8745509228        8.5627586589       12.4515104050
  C        42.9463350178       31.9614569703        5.8088942208
  C        43.6915215705       30.8853260860        5.0954443972
  C        44.6564121503       31.1912109049        4.1234155885
  C        45.2779359393       30.1715996825        3.4057330742
  C        44.9538156294       28.8213034185        3.6430558493
  C        44.0199315088       28.5236685426        4.6534667849
  C        43.3916387387       29.5404455985        5.3656101599
  C        45.5629507955       27.7239257892        2.8578307531
  C        45.5333521098       27.7173206004        1.4365319460
  C        44.8269947210       28.7075349164        0.6835959470
  C        35.0958889964       26.6336410612        0.7520719708
  C        35.0545752052       26.6116704395        3.5623187296
  C        18.1484285094        3.2468256476        5.7066489958
  C        17.4297644550        4.3436845654        4.9973429728
  C        16.4146601686        4.0523953539        4.0736737277
  C        15.7663173514        5.0830172554        3.3982766723
  C        16.1208433128        6.4282676379        3.6211075024
  C        17.1120747937        6.7116684131        4.5785161019
  C        17.7597578523        5.6827649214        5.2582911253
  C        15.4903818197        7.5239930478        2.8486604067
  C        15.4963499227        7.5074167059        1.4275211317
  C        16.1931060957        6.5057017814        0.6808327840
  H        10.6724474828       12.4662486477        3.9041959544
  H        11.6945460651       10.5513987229        2.6623097348
  H        15.3912013056       11.1679087083        4.7728041778
  H        14.3508224134       13.0707593445        6.0180843519
  H        13.3760505363       11.6311263167        1.2012344960
  H        50.3227718769       22.7485443966        3.9870904773
  H        49.3196210027       24.6229770852        2.6810730004
  H        45.6418810611       24.1607345111        4.8634191847
  H        46.6627447002       22.2898718915        6.1716802275
  H        47.6299951587       23.5759069253        1.2461214958
  H        14.8716625936        8.5880574267        4.6085341482
  H        50.2871195786       22.7029435229       12.0599617694
  H        49.2690729890       24.5757557492       13.3599959884
  H        45.6101564210       24.1087045493       11.1463135409
  H        46.6522339523       22.2534616718        9.8320449540
  H        47.6079401465       23.5518789849       14.7968078646
  H        40.6357197571       17.0680576143       11.4193419959
  H        48.6869561284       14.0950274743        7.7999185936
  H        10.6812239653       12.4668432772       12.0934403587
  H        11.6893360198       10.5248602877       13.2971492939
  H        15.3930395077       11.1582325220       11.2050651945
  H        14.3646391240       13.0867694587        9.9897864163
  H        13.3756436906       11.6220312442       14.7530346618
  H        47.9300218674       14.2184470582        9.7107794152
  H        47.7799586978       14.3737192645        6.4951212535
  H        49.0825120456       18.5519668532       10.8670018953
  H        10.4157158660       14.1344333114        7.9987256318
  H        24.4804769880        3.0344086616        3.9135760158
  H        25.6144894498        4.8984447734        2.6878333754
  H        23.2347224525        7.7563739110        4.8484812791
  H        22.1190808956        5.8826455028        6.0754630068
  H        23.7940211490        5.8010003382        1.2669905682
  H        36.3566314511       32.1879888719        3.9841255761
  H        35.2098474043       30.3688856304        2.7198510949
  H        37.4691115957       27.4355366922        4.9086869855
  H        38.5958268633       29.2675767708        6.1832417868
  H        36.9807783719       29.4548337294        1.3036243702
  H        25.7188192386        8.6211528771        4.6515757797
  H        36.4527647141       32.2410913549       12.1136437375
  H        35.3416340857       30.4276486939       13.4131192851
  H        37.5463154943       27.4866764192       11.1773529771
  H        38.6312975438       29.3116232121        9.8640969302
  H        37.0201070556       29.4748873865       14.8569264570
  H        46.1087522399       26.5872790610       11.3855350010
  H        44.6681307917       35.1161059763        7.8139894684
  H        24.4299259709        3.0414702483       12.0919290359
  H        25.5571996002        4.8828433470       13.3444531996
  H        23.1600121036        7.7684561421       11.2411911330
  H        22.0439837552        5.9148903037        9.9892441477
  H        23.7745554549        5.8000463578       14.8179913923
  H        44.9535240221       34.3901449951        9.6950285405
  H        44.9015775511       34.2067568956        6.4906032639
  H        40.6658486146       33.2085649184       10.8529585864
  H        23.1502019069        1.9575498295        8.0052894805
  H        25.7999811102       19.6782744407        3.9486378897
  H        23.6344946249       19.7279051243        2.7138083430
  H        22.3538649035       16.2089318873        4.8292802864
  H        24.5269473566       16.1701289672        6.0608321417
  H        23.7259774410       17.7120831510        1.2475018586
  H        35.1332483369       15.4244569560        4.0350682913
  H        37.2479486547       15.3634323337        2.7109335978
  H        38.6820552693       18.7999288794        4.8651229508
  H        36.5638676286       18.8414473074        6.1927202845
  H        37.2101988664       17.3133327274        1.2462185853
  H        20.3545947856       17.9766749294        4.6697495852
  H        35.1563181622       15.4241444320       12.0748823604
  H        37.2941577556       15.3400465891       13.3586309921
  H        38.7224718133       18.7673343327       11.1868549141
  H        36.5836363995       18.8276433421        9.8942032055
  H        37.2252098766       17.3069434204       14.7961098468
  H        35.1658062231       26.6796372046       11.4083186519
  H        28.5093637854       21.0791085592        7.8775469736
  H        25.7524147109       19.6549435353       12.1351779526
  H        23.5696410812       19.7185561033       13.3534092601
  H        22.3043732422       16.1857823992       11.2524705869
  H        24.4877721466       16.1428046767       10.0315390339
  H        23.7056517353       17.7018036541       14.7984909474
  H        29.0091918593       21.7210559669        9.7412312880
  H        29.1833379918       21.7142897336        6.5478915381
  H        32.0576799389       18.5688166316       11.0011515570
  H        27.4055250784       19.0608854853        8.0684481547
  H        14.8482011971       19.6549566243       12.1337019413
  H        17.0107120167       19.7086578755       13.3760212073
  H        18.3069056224       16.1970166799       11.2577091810
  H        16.1403108047       16.1594203663       10.0146460125
  H        16.9233610294       17.7144247735       14.8456446017
  H        46.0937910104       15.4354491315       12.0651726419
  H        43.9699993740       15.3624952267       13.3702006609
  H        42.5379405121       18.7952526408       11.2091809617
  H        44.6620942563       18.8426662177        9.8928799451
  H        44.0109386265       17.2977243905       14.8373333390
  H        20.2938939372       17.9358351008       11.4212317820
  H        46.0384920262       15.3772316064        4.0412824276
  H        43.9065524967       15.3023442417        2.7506557588
  H        42.5091384739       18.7736768801        4.8713214216
  H        44.6476344064       18.8346319391        6.1634788451
  H        43.9956688983       17.2791611457        1.2859942187
  H        46.1988329042       26.6823458286        4.6233390662
  H        52.7410696246       21.0626685210        8.1946728641
  H        14.8783019952       19.6808543739        3.9046218718
  H        17.0788127658       19.7591792509        2.7242287874
  H        18.3336192587       16.2307880824        4.8389783281
  H        16.1354098637       16.1769850622        6.0296863765
  H        16.9427674337       17.7275028426        1.2931257873
  H        52.3223194408       21.6732315601        6.2943759913
  H        52.0132537389       21.7021066341        9.4957139601
  H        49.0668316380       18.6074242776        5.2043648181
  H        13.2471733700       19.0166847061        7.9772276609
  H        29.9497252250       12.4445668515       12.2299706929
  H        28.8808956985       10.5122073667       13.3993280975
  H        25.2423220000       11.2068896296       11.2147468072
  H        26.3301402070       13.1275475656       10.0378968855
  H        27.1748460925       11.6684932444       14.7918864068
  H        31.0006729328       22.7757800930       12.0167117876
  H        32.0108280263       24.6504087941       13.3151779981
  H        35.7017406433       24.1334246134       11.1677768407
  H        34.6717118488       22.2642995649        9.8640951930
  H        33.6818652481       23.5708785242       14.7590616164
  H        25.6999999196        8.5947753477       11.4058406698
  H        30.9188228308       22.6328519600        3.8880556476
  H        31.9237139876       24.5172812969        2.5980788105
  H        35.5304859692       24.1689585494        4.9177834369
  H        34.5028832786       22.3002059906        6.2169795465
  H        33.6334357782       23.5557561470        1.2074641923
  H        40.5821106471       17.0612754099        4.6617165720
  H        32.5284784075       14.1121636185        8.2834972837
  H        29.9082815795       12.4786041739        3.9594602733
  H        28.8671000182       10.5930756701        2.6995623998
  H        25.1786246033       11.2205429615        4.8202008447
  H        26.2342501396       13.1056826416        6.0786971592
  H        27.1688175051       11.6846531078        1.2415492071
  H        33.3249075953       14.1537300140        6.4458718658
  H        33.4085796857       14.4116265851        9.6220095376
  H        32.0234592275       18.4690094481        5.0505021777
  H        30.2055587954       14.1397350484        8.1557538028
  H        16.1183355082        2.9630791034       12.1298913392
  H        14.9530894991        4.8201172764       13.3225846495
  H        17.3656861911        7.6857623608       11.2099219428
  H        18.5144812084        5.8181852132       10.0101211742
  H        16.7533404173        5.7394458958       14.7715198708
  H        44.8280948645       32.1400714640       11.9768786843
  H        45.9373113315       30.3411565639       13.3063050175
  H        43.6818419006       27.3780517466       11.1526441970
  H        42.5992386536       29.1899080382        9.8100339513
  H        44.2301965582       29.4365680211       14.7689211556
  H        14.8506309581        8.5458639769       11.3632948610
  H        44.9002301599       32.2338681327        3.9321986684
  H        46.0250571637       30.4127772378        2.6526943056
  H        43.7625520444       27.4839813044        4.8447041076
  H        42.6447873902       29.3176275067        6.1237056004
  H        44.2684006298       29.4703469757        1.2181981343
  H        35.0027961308       26.6248936876        4.6494228879
  H        36.6050432284       35.1338214834        8.1806746961
  H        16.1436715241        3.0128035838        3.9038638199
  H        14.9740448784        4.8561253378        2.6881443720
  H        17.3953949490        7.7471622874        4.7555532676
  H        18.5424775879        5.8932017922        5.9832251004
  H        16.7644548569        5.7554062894        1.2192841571
  H        36.2784359411       34.4822262826        6.2732393944
  H        36.3802626647       34.2092146720        9.4998077160
  H        40.5787247779       33.2015005303        5.1543000533
  H        17.4706451127        1.9465451840        7.9740137053
  H        29.2968789545       19.4791338252       12.6166829313
  H        28.7661626884       18.7460576626        3.7333023058
  H        30.7268907829       15.3790523964        3.7946260105
  H        31.2746181182       15.6288427694       12.5659506344
  H        28.0980565247       18.0212074674       14.3794753819
  H        29.4866615444       15.6858542310       14.8071900779
  H        32.6960409037       18.2727235158        1.1341942475
  H        18.8526070260        0.8687429851       12.3350907825
  H        40.5280083150       35.2291540291        3.9522124826
  H        42.3231234839       34.4180698520        3.5911120868
  H        22.0876295456        0.6919955799       12.3513599645
  H        11.5969740015       18.7127716724       12.3822864359
  H        52.2649246983       18.4310619431        3.6775755128
  H        49.2550917692       16.4769629159        3.5845591108
  H        10.1500449635       15.7982173451       12.2927995318
  H        50.8499803062       17.6925205093        3.9542340381
  H        10.0459158492       17.3945646328       12.0519879031
  H        20.2137209621        0.0020150142       12.0421155421
  H        39.1834632095       36.1243165479        3.6864096922
 Ni        30.8198284812       18.3778196189        2.5832932820
 Ni        31.1562539541       16.8197884689        0.0000305045
 Ni        29.3804045228       18.1314959647        0.4145683868
 Ni        30.1372539951       17.4529021234       13.3231196691
  O        10.6499077202       14.3651590567        5.4858371523
  O        12.6131736427       14.6575536413        6.5839099463
  O        49.1476081493       16.8460155292        7.9897629797
  O        50.3502051494       20.9358762142        5.6481618852
  O        48.3484883774       20.5931941321        6.6659618963
  O        11.0515924842       17.0537886720        6.5006823550
  O        50.3209248926       20.8816445458       10.4068058722
  O        48.3466846724       20.5866838360        9.3270526771
  O        49.5434175159       18.2484311624       10.0682185065
  O        12.3588746498       18.6245737141        7.9997005216
  O        48.6931913280       14.1486884804        6.7512459015
  O         8.2098129249       14.2104839303        9.3225911443
  O        10.7353277589       14.5067854596       10.6643222295
  O        12.5718401901       14.5828593001        9.3285196260
  O        22.8444505375        2.0434427898        5.4871724922
  O        21.6046432066        3.5919325513        6.5903219273
  O        42.0578490372       34.1370196242        7.9789482017
  O        37.9812119966       33.1359474656        5.5722930978
  O        39.2173334972       31.5751048231        6.6657320270
  O        20.3081459884        1.0392218436        6.5019234453
  O        38.0242922286       33.1847314822       10.4157538276
  O        39.2183828480       31.5829777253        9.3275016693
  O        40.6521367778       33.7690639781       10.0601856712
  O        18.2555107229        1.3756153715        7.9967758274
  O        44.6222026414       35.1005590485        6.7587519865
  O        24.2053289491       -0.0000019782        9.3208288818
  O        22.7528796549        2.0577216460       10.5837596244
  O        21.6240623914        3.5957453264        9.3420197825
  O        27.4968027259       18.7405591194        5.4900509411
  O        26.7631192033       16.9308152146        6.6553616596
  O        30.6470819400       19.3471878501        8.0483223348
  O        33.5881155527       16.2643075539        5.7445498377
  O        34.2701313182       18.1794417515        6.7475131009
  O        29.5932962304       17.0028069040        6.5803672934
  O        33.5522076487       16.3394178840       10.4170412825
  O        34.2973484444       18.2389510169        9.4070802730
  O        31.6491858989       18.3161901054       10.1555236854
  O        30.3063816345       15.1052517462        8.1427398867
  O        28.5525016710       21.0276447447        6.8317714126
  O        28.5175024768       20.9507139659        9.4092220528
  O        27.4613499881       18.6790708012       10.6595041943
  O        26.6942668954       16.9296882509        9.4133421608
  O        13.1487586334       18.6931336056       10.5873968845
  O        13.9199646353       16.9164197524        9.4055009575
  O        50.5956057620       19.3500869357        8.0205727694
  O        47.6823256870       16.3272815760       10.4175259339
  O        46.9495299255       18.1754566085        9.3261969002
  O        11.0694881003       17.0156118786        9.4896501378
  O        47.6750326709       16.3359949904        5.6527440046
  O        46.9246677593       18.2357045490        6.6629896682
  O        49.5685312045       18.3177560075        5.9823753061
  O        10.3186176664       15.1003114303        7.9970671863
  O        52.6707214318       21.0278716468        9.2418261852
  O        12.1467920934       20.8911351007        6.6732346369
  O        13.1077871188       18.6137907881        5.3256711488
  O        13.9573786172       16.9870567605        6.6653125423
  O        29.9912932798       14.4420566583       10.7399910399
  O        28.0877787286       14.6530048224        9.5008187046
  O        32.0800884417       16.8558180110        8.0970726259
  O        30.9645482011       20.9501725847       10.4084898991
  O        32.9444583819       20.5997701403        9.3356772697
  O        29.5650728354       17.0749726972        9.5791243057
  O        30.8551218486       20.8784262748        5.6591535076
  O        32.8702473679       20.5762251922        6.6670549817
  O        31.6446859340       18.1815331604        5.9148005679
  O        28.2937967419       18.6684674500        8.0682161962
  O        32.4947109312       14.2132850948        9.3462681008
  O        32.4341404882       14.1465474041        6.8343999233
  O        29.9144333564       14.4382122311        5.4888025719
  O        28.0388578542       14.5846375062        6.7547048586
  O        17.8891327307        1.9664728899       10.6628252699
  O        18.9561245749        3.5270468360        9.4080031813
  O        39.1685249470       34.1384694750        7.9970666129
  O        43.2801642137       33.0588861721       10.3316619876
  O        42.0343643855       31.5064080994        9.2415971136
  O        20.3173277606        1.0363343554        9.4804611133
  O        43.2760773505       33.1824970274        5.5749208035
  O        42.0052358062       31.5841353363        6.5830266508
  O        40.5791367198       33.7751903478        5.9357065503
  O        22.3670969412        1.3843508601        7.9979404912
  O        36.6727646967       35.0996340337        9.2333143083
  O        16.4455617684        0.0640559791        6.6682357372
  O        17.9364307473        2.0432971282        5.3263641621
  O        18.9188886886        3.5930446569        6.6659715008
  O        29.6830209997       18.9109730360        4.0153768707
  O        29.8665423922       18.9001068438       12.0767447910
  O        31.5507761909       15.8223328591        4.0775201908
  O        31.2558429886       16.4789216715       12.0852893258
  O        32.0637680804       17.5835361738        1.4082695710
  O        30.3787489300       15.9930161471       14.5561620995
  O        28.9822946140       18.3903226662       14.5658857276
  O        39.4567852194       35.2437523386        4.0019464699
  O        19.1406395261        0.0042198855       11.9906090018
  O        41.9696073810       35.1727295503        4.0871887475
  O        21.6911743501       -0.0693848224       11.8957241909
  O        51.3650607911       18.6143066763        4.0054755406
  O        10.7510984318       18.7471569520       11.9048988540
  O        50.0795819848       16.4127999664        4.0917673800
  O         9.5242587236       16.4831118232       11.9912268522
 Zr         9.2964425992       16.0529755603        6.1823054635
 Zr        49.8358291422       16.0068836220        9.7465839695
 Zr        22.0730399510        0.0292376921        6.1891860275
 Zr        42.4606519343       35.1528820656        9.8007806959
 Zr        29.6096949984       19.0501315953        6.2455464969
 Zr        29.5753188014       19.1771797714        9.8815094917
 Zr        11.0375949800       19.0520980590        9.8276962775
 Zr        11.0433557136       19.1549160230        6.2512901337
 Zr        31.3275563997       16.1059773901        9.9247191969
 Zr        31.4223855236       15.9571051519        6.3771434299
 Zr        18.6006541689       -0.0024121101        9.7634535038
 Zr        18.5062569471       -0.0085645213        6.2133499692
 Zr        12.3017949559       16.3235976593        7.9904794399
 Zr        48.6151290596       18.8328424755        8.0102675339
 Zr        20.3144071497        2.4724249994        7.9906515854
 Zr        40.6426124178       32.6861284692        7.9780041500
 Zr        28.3465431983       16.3361724958        8.0900678784
 Zr        32.6176679383       18.8436592486        8.0509386380
  H        29.4136068247       17.6065022348        1.8397466655
  H        31.6203500051       16.6614641143        3.5388430787
  H        31.9745510805       18.8243947721        3.4173256683
