     566
 i =       75, E =     -4712.2582001073
  C        11.8587472808       14.0534341454        5.7415959565
  C        12.4562400777       12.8905097737        5.0232641151
  C        11.7046028211       12.1715960686        4.0815423028
  C        12.2809919612       11.1093752866        3.3892208789
  C        13.6215582641       10.7395280134        3.6169890722
  C        14.3546919714       11.4431239689        4.5904731554
  C        13.7817774466       12.5080984141        5.2819753731
  C        14.2610465522        9.6488120930        2.8435937058
  C        14.2561254850        9.6566083318        1.4218844566
  C        13.7429793513       10.7587380991        0.6679754595
  C        49.1265932107       21.2332654609        5.8798440380
  C        48.5496980411       22.4010966674        5.1527189768
  C        49.2997300334       23.0684120346        4.1717106604
  C        48.7327767617       24.1074948164        3.4384527569
  C        47.4022201452       24.5091244069        3.6670237051
  C        46.6712709668       23.8602526410        4.6805544568
  C        47.2337388381       22.8154008762        5.4099789182
  C        46.7720048433       25.5868274681        2.8697239301
  C        46.7611614078       25.5573064550        1.4479524740
  C        47.2612367398       24.4423003430        0.7044215243
  C        14.8598678373        8.5701671796        0.7085977706
  C        14.8919482207        8.5969045987        3.5202134249
  C        49.1131107791       21.2034255129       10.1454034993
  C        48.5278177202       22.3649179532       10.8723603306
  C        49.2670544511       23.0255165876       11.8653646315
  C        48.6908034647       24.0601228894       12.5968090296
  C        47.3604552179       24.4570816505       12.3584838040
  C        46.6400888631       23.8123559601       11.3348041551
  C        47.2135450251       22.7763804530       10.6030354789
  C        46.7219961916       25.5320094566       13.1495664128
  C        46.7336473652       25.5282991875       14.5712790033
  C        47.2490990337       24.4290880292       15.3276558980
  C        40.5983048801       17.0633524976       15.2902602239
  C        40.5839738376       17.0423489929       12.4794437107
  C        11.8827810768       14.0864313569       10.2855322946
  C        12.4718745600       12.9104873815       10.9896913233
  C        11.7143243400       12.1774862580       11.9159463097
  C        12.2807642099       11.0949478373       12.5843558187
  C        13.6194765736       10.7208909936       12.3523860601
  C        14.3574450076       11.4362074982       11.3913845625
  C        13.7921696379       12.5174621298       10.7186982932
  C        14.2529818132        9.6240641333       13.1227902863
  C        14.2518554000        9.6440730150       14.5446361900
  C        13.7422338713       10.7531277442       15.2917207430
  C        22.5062675711        3.2434377861        5.7455425641
  C        23.2090410327        4.3452795743        5.0283313575
  C        24.2047973659        4.0594180362        4.0824453832
  C        24.8293553903        5.0940415348        3.3905719600
  C        24.4736780631        6.4373176980        3.6237576289
  C        23.5006214817        6.7146273626        4.6015195654
  C        22.8722036530        5.6818995743        5.2925733309
  C        25.0904993691        7.5416403587        2.8533800439
  C        25.0893388373        7.5352829749        1.4316274299
  C        24.4019458203        6.5363236215        0.6719745453
  C        38.2991173619       31.9269100008        5.8491789672
  C        37.5603070287       30.8389201467        5.1424331031
  C        36.5969555099       31.1478832814        4.1693066707
  C        35.9663593283       30.1321208902        3.4553314444
  C        36.2825511917       28.7794344355        3.6906000373
  C        37.2169464727       28.4779739380        4.6999028480
  C        37.8516346487       29.4927758375        5.4132858445
  C        35.6671611113       27.6919482183        2.8931952517
  C        35.7014462231       27.7047509455        1.4708964658
  C        36.4129229738       28.7032066688        0.7336194334
  C        25.7247805828        8.6062742591        0.7241990789
  C        25.6786667155        8.6144921929        3.5355741677
  C        38.3269538237       31.9588742807       10.1586559078
  C        37.6033624262       30.8847933185       10.9021813201
  C        36.6683249848       31.1934806228       11.9026771856
  C        36.0524657379       30.1762863528       12.6305443455
  C        36.3554365495       28.8216692214       12.3840624936
  C        37.2697361327       28.5229643246       11.3546239639
  C        37.8875737739       29.5368289831       10.6276527646
  C        35.7387342779       27.7237421110       13.1676835340
  C        35.7377771447       27.7210017815       14.5909286607
  C        36.4287691964       28.7120390403       15.3566686553
  C        46.1355249990       26.6208651180       15.2814372064
  C        46.0879983860       26.5803635140       12.4735382848
  C        22.4731392317        3.2585356729       10.2525732651
  C        23.1932007266        4.3661510448       10.9568888225
  C        24.2085862689        4.0760451542       11.8828978913
  C        24.8575205092        5.1031571654       12.5655069498
  C        24.5129655093        6.4526589924       12.3475721369
  C        23.5234730461        6.7360093389       11.3868324231
  C        22.8706838371        5.7090816739       10.7033530171
  C        25.1499424643        7.5462679366       13.1285345525
  C        25.1208714116        7.5367398755       14.5519476191
  C        24.4142407221        6.5387341204       15.2952179995
  C        26.5863865237       17.7985484906        5.7446898283
  C        25.2812190965       17.8679970383        5.0294390077
  C        25.0369515914       18.8615333030        4.0689346656
  C        23.8211154953       18.8965812956        3.3907991277
  C        22.8193229199       17.9394491883        3.6493395571
  C        23.0593329395       16.9714961380        4.6423137280
  C        24.2747166500       16.9331778943        5.3212425299
  C        21.5509103227       17.9301026568        2.8828304434
  C        21.5581148075       17.9085777821        1.4610145075
  C        22.7662894845       17.7740957502        0.7064591363
  C        34.4410598790       17.1940698170        5.9184031682
  C        35.7393980482       17.1435734094        5.1808534537
  C        35.9506417488       16.1660905768        4.1952251842
  C        37.1300342959       16.1524365701        3.4557295629
  C        38.1336900874       17.1155334069        3.6788805550
  C        37.9268452079       18.0728170095        4.6907909363
  C        36.7441035440       18.0916087865        5.4283199873
  C        39.3829628529       17.1232737337        2.8811451105
  C        39.3648864282       17.1155722887        1.4587272495
  C        38.1500495836       17.2256408157        0.7123353063
  C        20.3145956768       17.9349093598        0.7489775770
  C        20.3251756111       17.9331719072        3.5618015205
  C        34.3366902751       17.1515625707       10.2663343642
  C        35.6441349329       17.0548012969       10.9765689088
  C        35.8640133028       16.0972264603       11.9790882885
  C        37.0740992895       16.0693207243       12.6697266044
  C        38.0945314695       16.9996139587       12.3848871537
  C        37.8792090151       17.9270520153       11.3473664037
  C        36.6716868938       17.9580145814       10.6562043805
  C        39.3580989915       17.0301715318       13.1586360701
  C        39.3523357289       17.0690748215       14.5807363395
  C        38.1441546165       17.2027879041       15.3358054657
  C        35.0996409934       26.6454643943       15.2951018016
  C        35.1507968769       26.6505214774       12.4848285597
  C        26.5673207955       17.8240667294       10.3182570189
  C        25.2539274735       17.8736645451       11.0225025914
  C        24.9966071308       18.8747013130       11.9715705304
  C        23.7798447942       18.9020001105       12.6467976886
  C        22.7917669119       17.9292794941       12.3946221469
  C        23.0435859537       16.9541391406       11.4129031712
  C        24.2613772325       16.9239303269       10.7368664765
  C        21.5267351570       17.9139300728       13.1638275543
  C        21.5451613397       17.8993285834       14.5849172359
  C        22.7598610136       17.7700059814       15.3302647765
  C        14.0459839555       17.8319594430       10.2843171566
  C        15.3526102260       17.8961463476       11.0014374075
  C        15.6120258526       18.9085674564       11.9380605598
  C        16.8228525426       18.9343554808       12.6265239705
  C        17.8058179294       17.9503146429       12.3995413217
  C        17.5522815052       16.9635731353       11.4285698962
  C        16.3411210453       16.9334402536       10.7413655341
  C        19.0720462554       17.9323147109       13.1703554513
  C        19.0640063920       17.9269954835       14.5921658482
  C        17.8529901417       17.8329389289       15.3477067272
  C        46.7944765916       17.2112145532       10.1517564399
  C        45.4891105905       17.1272712636       10.8767457400
  C        45.2798230629       16.1406119067       11.8535439602
  C        44.0889262308       16.1022707733       12.5759055586
  C        43.0710839805       17.0496378783       12.3467000674
  C        43.2747063194       18.0114206749       11.3378500012
  C        44.4673093317       18.0541633550       10.6165310687
  C        41.8178006337       17.0514674084       13.1432036084
  C        41.8374170882       17.0720613158       14.5666675212
  C        43.0532028712       17.1848484363       15.3124584430
  C        20.3076727340       17.9299122077       15.3047430641
  C        20.2977152171       17.9096332500       12.4922986191
  C        46.7863934643       17.2359453237        5.8803087522
  C        45.4903778002       17.1398831240        5.1473597053
  C        45.2792974836       16.1499774584        4.1750914148
  C        44.0959932616       16.1264114199        3.4400450780
  C        43.0913695585       17.0894511917        3.6593700846
  C        43.2959524305       18.0532291342        4.6651662200
  C        44.4803761949       18.0832585335        5.3951167271
  C        41.8393709926       17.1031980261        2.8688288144
  C        41.8488182992       17.0974916311        1.4467332785
  C        43.0587669807       17.1936238147        0.6895580176
  C        46.1531803431       26.6372102293        0.7262045570
  C        46.1619889008       26.6559168387        3.5358553967
  C        14.0406752074       17.8292768841        5.7062412523
  C        15.3554776484       17.8998417201        5.0071294327
  C        15.6254311969       18.9210366222        4.0840867201
  C        16.8500511176       18.9588309959        3.4220947833
  C        17.8299530864       17.9743534959        3.6584891427
  C        17.5657467137       16.9795630333        4.6171158522
  C        16.3434149135       16.9414833568        5.2830008704
  C        19.0962822414       17.9539638391        2.8904140745
  C        19.0768548850       17.9371192005        1.4692160975
  C        17.8592755506       17.8370978856        0.7240713891
  C        28.8247945121       14.1619722835       10.4193396939
  C        28.2481258692       12.9814759880       11.1242339713
  C        28.9813814685       12.2406978808       12.0636386285
  C        28.3992180973       11.1421189794       12.6954571101
  C        27.0719986403       10.7576164693       12.4122520566
  C        26.3616129977       11.4823156655       11.4383476574
  C        26.9385732527       12.5793228581       10.8072154959
  C        26.4073292430        9.6592451362       13.1539218549
  C        26.3685187091        9.6826371902       14.5743826146
  C        26.8499689304       10.7985156745       15.3298721673
  C        32.1897213250       21.1980699530       10.1544828728
  C        32.7699967282       22.3720766087       10.8712729995
  C        32.0170671871       23.0454971505       11.8462687308
  C        32.5770185554       24.0951193278       12.5692128398
  C        33.9072001604       24.5007802031       12.3425249027
  C        34.6413147924       23.8463306791       11.3345175039
  C        34.0835666716       22.7932024914       10.6114427566
  C        34.5291406535       25.5824695659       13.1433219941
  C        34.5112795459       25.5595736789       14.5661713760
  C        33.9988348571       24.4472748089       15.3061228156
  C        25.7464677585        8.6025621900       15.2794375381
  C        25.7803691840        8.6097460866       12.4663443619
  C        32.0730055744       21.2001942588        5.8709058602
  C        32.6395070138       22.3674804891        5.1341059530
  C        31.9082331865       23.0070680080        4.1209331860
  C        32.4787841542       24.0493888128        3.3921089136
  C        33.7950818194       24.4808987960        3.6528402233
  C        34.5062180329       23.8547787067        4.6953423963
  C        33.9409529014       22.8103811743        5.4215554439
  C        34.4366906323       25.5635794604        2.8686866522
  C        34.4634283080       25.5503973233        1.4457708410
  C        33.9746892576       24.4434126507        0.6829231339
  C        40.6036708600       17.0818023591        0.7361624851
  C        40.6143030419       17.1328604424        3.5464963828
  C        28.7361501367       14.0587296814        5.7847909661
  C        28.1232581035       12.9044484570        5.0657739069
  C        28.8569273687       12.2059224425        4.0943508400
  C        28.2758346577       11.1471569808        3.4025621070
  C        26.9432479194       10.7620564988        3.6525530307
  C        26.2277748041       11.4449275790        4.6541364636
  C        26.8085246061       12.5033111838        5.3508359395
  C        26.3027555545        9.6775421307        2.8707739083
  C        26.3136992772        9.6941899160        1.4487359897
  C        26.8213709818       10.8054340201        0.7052816288
  C        18.1354482952        3.1808918607       10.3171154186
  C        17.4057862748        4.2780352286       11.0154816689
  C        16.3900118473        3.9994450491       11.9428937982
  C        15.7420680623        5.0392656936       12.6064257548
  C        16.0937701262        6.3830696663       12.3668736350
  C        17.0831121511        6.6528176692       11.4031221342
  C        17.7324600560        5.6156379473       10.7380441183
  C        15.4693338064        7.4906616743       13.1300173701
  C        15.4846872978        7.4899754239       14.5517442514
  C        16.1862632000        6.4963602707       15.3048941830
  C        42.9457209998       31.8596130219       10.0728472040
  C        43.6461400948       30.7719215453       10.8167557095
  C        44.5916272926       31.0932823736       11.8028594557
  C        45.1973757777       30.0877665649       12.5505300032
  C        44.8710357386       28.7346868252       12.3356406821
  C        43.9452574702       28.4203083331       11.3223951109
  C        43.3363900061       29.4254235249       10.5743502158
  C        45.4886766487       27.6554108663       13.1388296082
  C        45.4927909315       27.6809883557       14.5605282714
  C        44.8056386928       28.6889841172       15.3071613414
  C        14.8558662114        8.5625348046       15.2641531092
  C        14.8740618448        8.5624667500       12.4514709668
  C        42.9463543483       31.9615840285        5.8090443860
  C        43.6914885491       30.8854101482        5.0955098295
  C        44.6562514662       31.1912685360        4.1233575041
  C        45.2777101300       30.1716577358        3.4056029759
  C        44.9537066480       28.8213619690        3.6430652472
  C        44.0200165973       28.5237383483        4.6536625764
  C        43.3918136771       29.5405288723        5.3658674704
  C        45.5627472942       27.7239500358        2.8578103426
  C        45.5331400197       27.7173212294        1.4365082187
  C        44.8268455139       28.7075706477        0.6835574331
  C        35.0782473059       26.6390120140        0.7413875199
  C        35.0506532414       26.6217033997        3.5522275325
  C        18.1488099477        3.2468247875        5.7067843000
  C        17.4302544289        4.3436854191        4.9974083227
  C        16.4149251180        4.0523890096        4.0739679003
  C        15.7665722923        5.0829783804        3.3985418696
  C        16.1212812663        6.4282386636        3.6210695287
  C        17.1127991996        6.7116616401        4.5781850883
  C        17.7604878260        5.6827853201        5.2580144871
  C        15.4906400820        7.5238843107        2.8486182233
  C        15.4961924552        7.5071044933        1.4274686190
  C        16.1927288240        6.5052885062        0.6807123788
  H        10.6724779875       12.4657130573        3.9044823473
  H        11.6947098832       10.5508804287        2.6626871024
  H        15.3917319153       11.1685685207        4.7722235937
  H        14.3512481359       13.0712743434        6.0174456859
  H        13.3762331159       11.6309808037        1.2012741575
  H        50.3224621220       22.7484288439        3.9870064919
  H        49.3192892484       24.6227758231        2.6809061593
  H        45.6417851498       24.1610449895        4.8637300130
  H        46.6627483117       22.2902085677        6.1721252557
  H        47.6298050423       23.5759147712        1.2460728882
  H        14.8725154545        8.5882605322        4.6085265061
  H        50.2870401322       22.7025319198       12.0603711066
  H        49.2692176154       24.5754674796       13.3603716261
  H        45.6107569073       24.1097763139       11.1456288013
  H        46.6526858694       22.2543172671        9.8314314243
  H        47.6080242063       23.5520342138       14.7967514078
  H        40.5783266512       16.9934413700       11.3920364026
  H        48.6869026279       14.0952815053        7.7999745242
  H        10.6809429783       12.4667847854       12.0934903865
  H        11.6889514993       10.5247224531       13.2971696304
  H        15.3928179530       11.1581587472       11.2053636775
  H        14.3645993301       13.0866754128        9.9901166950
  H        13.3755252000       11.6218000275       14.7530974576
  H        47.9300910187       14.2191149818        9.7112834518
  H        47.7798563557       14.3734298278        6.4951789915
  H        49.0806750838       18.5509562166       10.8664271119
  H        10.4157806492       14.1344175362        7.9990647417
  H        24.4693465467        3.0198898037        3.9020960715
  H        25.6048373968        4.8714140297        2.6608503980
  H        23.2168457578        7.7485743879        4.7865501231
  H        22.1016843821        5.8873319452        6.0317090099
  H        23.8321880526        5.7781200092        1.2014285960
  H        36.3662365101       32.1925350948        3.9742733939
  H        35.2196904003       30.3784338468        2.7035328014
  H        37.4706508572       27.4371990752        4.8906158016
  H        38.5973796465       29.2645611590        6.1712572375
  H        36.9778626671       29.4529051501        1.2799360655
  H        25.6973757968        8.5939829641        4.6237262505
  H        36.4432714482       32.2377520463       12.1075692480
  H        35.3219811786       30.4249680182       13.3972744439
  H        37.5185528457       27.4826698209       11.1552738060
  H        38.6142600276       29.3073941419        9.8519822619
  H        37.0067942023       29.4681695648       14.8331902738
  H        46.1094419132       26.5878176850       11.3855034207
  H        44.6681700134       35.1160676265        7.8140979256
  H        24.4788325548        3.0360494502       12.0518129707
  H        25.6449754853        4.8675318309       13.2783352650
  H        23.2437005573        7.7720363343       11.2066057793
  H        22.0906244963        5.9289052348        9.9779546095
  H        23.8535949394        5.7827688125       14.7532311109
  H        44.9532061449       34.3899876915        9.6950145803
  H        44.9014414264       34.2068100694        6.4906074328
  H        40.6653675866       33.2088994509       10.8530053116
  H        23.1508265326        1.9579287740        8.0024761494
  H        25.8088781388       19.6010140319        3.8685885505
  H        23.6330386318       19.6718737316        2.6512723371
  H        22.2951942015       16.2249900537        4.8488736317
  H        24.4741368768       16.1724893486        6.0721371386
  H        23.7039595711       17.6411619716        1.2382701360
  H        35.1715926507       15.4294125668        4.0144876657
  H        37.2887530417       15.3868746696        2.6993488042
  H        38.6915173045       18.8261110322        4.8692016034
  H        36.5700020954       18.8481308399        6.1900752622
  H        37.2166656253       17.3617891253        1.2511658742
  H        20.3283390283       17.9710228200        4.6496988464
  H        35.0722796556       15.3899682981       12.2158840814
  H        37.2398319876       15.3218277137       13.4424270332
  H        38.6566177359       18.6526397284       11.1171679367
  H        36.4914747635       18.6924777030        9.8750022281
  H        37.2050791434       17.3219807218       14.8034186752
  H        35.1312622455       26.6728492318       11.3967994266
  H        28.5182770900       21.0369763287        7.8750854171
  H        25.7628360660       19.6237847146       12.1593452274
  H        23.5786213191       19.6817900041       13.3781664684
  H        22.2880563369       16.1970658694       11.2131380339
  H        24.4723345810       16.1593769037        9.9930607132
  H        23.6924373798       17.6338796622       14.7906079931
  H        29.0556283587       21.6559383180        9.7309676183
  H        29.1929994812       21.6975513010        6.5601049688
  H        32.0534171261       18.5302259391       10.9775877009
  H        27.3748858448       19.0044625336        8.0150724529
  H        14.8539586365       19.6690096137       12.1115414995
  H        17.0220661814       19.7237502273       13.3481027931
  H        18.3027580744       16.1972739310       11.2456405938
  H        16.1312329925       16.1586784511       10.0078447724
  H        16.9120757315       17.7247269470       14.8162046034
  H        46.0694039820       15.4173125674       12.0437621383
  H        43.9350775996       15.3306252291       13.3271728924
  H        42.4998788859       18.7521553222       11.1507495831
  H        44.6362444666       18.8151642111        9.8579962353
  H        43.9891217061       17.2951695196       14.7723413686
  H        20.2955483254       17.9419220048       11.4042420174
  H        46.0572883980       15.4105546077        3.9989978721
  H        43.9358303495       15.3543389641        2.6906256145
  H        42.5279170231       18.8035542502        4.8411050930
  H        44.6560504454       18.8454981075        6.1503136704
  H        43.9991440122       17.3104040402        1.2206363703
  H        46.1987437155       26.6824200067        4.6233048814
  H        52.7412687173       21.0626743818        8.1945985722
  H        14.8662398785       19.6788395401        3.9037918516
  H        17.0612200953       19.7539761304        2.7103181442
  H        18.3150819005       16.2132550023        4.8044763928
  H        16.1227013848       16.1624896967        6.0086884154
  H        16.9231577961       17.7321394542        1.2642882894
  H        52.3227255624       21.6736289418        6.2944954204
  H        52.0139259241       21.7028427706        9.4955465663
  H        49.0680629236       18.6084487255        5.2038758892
  H        13.2471331896       19.0163730441        7.9760620457
  H        30.0070608882       12.5312577054       12.2821213814
  H        28.9705492231       10.5685431207       13.4221868739
  H        25.3353935738       11.2000811883       11.2124744759
  H        26.3842668388       13.1553591088       10.0709410871
  H        27.2148667596       11.6726196269       14.7990485610
  H        30.9958326065       22.7231233496       12.0346980883
  H        31.9850888020       24.6140628943       13.3199482214
  H        35.6705352939       24.1478213566       11.1507010042
  H        34.6591633565       22.2668196447        9.8535882753
  H        33.6492381639       23.5739071799       14.7630879291
  H        25.8242248721        8.5959273373       11.3786006754
  H        30.8987240108       22.6639019452        3.9052889497
  H        31.9030448996       24.5436456010        2.6126357265
  H        35.5250378848       24.1738242711        4.9051634434
  H        34.4997178285       22.3068409262        6.2067574941
  H        33.6061162109       23.5673382490        1.2090069427
  H        40.6194353464       17.1088770566        4.6345829739
  H        32.5173594695       14.1412541749        8.1170528486
  H        29.8824411673       12.5087756870        3.8969182218
  H        28.8522383934       10.6030625417        2.6576020763
  H        25.1969235268       11.1603944449        4.8549561188
  H        26.2509727299       13.0480005285        6.1091112261
  H        27.1633563509       11.6843545996        1.2440049410
  H        33.3098206533       14.2633276918        6.3928541128
  H        33.4023085839       14.2845866614        9.5475736203
  H        32.0934418766       18.4838821116        5.0676049845
  H        30.1926448673       14.1316568229        8.0810461580
  H        16.1181006073        2.9628898027       12.1292263700
  H        14.9526087022        4.8196739194       13.3220115048
  H        17.3653921985        7.6857503270       11.2100904096
  H        18.5145532068        5.8185120932       10.0103168451
  H        16.7526894610        5.7389412787       14.7713685155
  H        44.8278321542       32.1403763719       11.9770743769
  H        45.9372061526       30.3415580366       13.3064972585
  H        43.6826214608       27.3782275394       11.1522602408
  H        42.5998088484       29.1900433973        9.8096618886
  H        44.2302863215       29.4367537734       14.7688574451
  H        14.8502923948        8.5457225395       11.3632510182
  H        44.8999762349       32.2339307981        3.9320354832
  H        46.0247432731       30.4128497260        2.6524801587
  H        43.7628278158       27.4840358372        4.8450672259
  H        42.6451352877       29.3177594676        6.1241476890
  H        44.2682952789       29.4704244494        1.2181470720
  H        35.0044372973       26.6367529881        4.6395657817
  H        36.6052672241       35.1339592153        8.1806393108
  H        16.1437431264        3.0128162921        3.9043762436
  H        14.9741325820        4.8560611535        2.6886066556
  H        17.3963848630        7.7471309919        4.7549495414
  H        18.5433779221        5.8933224612        5.9827399780
  H        16.7642243716        5.7550549200        1.2190935877
  H        36.2790903151       34.4820200798        6.2734420624
  H        36.3807882985       34.2090970129        9.4997790304
  H        40.5791091758       33.2019207366        5.1543193585
  H        17.4717718383        1.9475319765        7.9742994429
  H        29.4390060925       19.5554781768       12.5463356534
  H        28.8148019900       18.7102721070        3.6846354400
  H        31.5809407274       15.6391255815        3.4178385780
  H        27.8769265457       18.9069354795       14.5134763631
  H        30.0604936774       15.3585044733       13.4864475401
  H        32.4335465918       17.2148294811        1.1326112942
  H        18.8525419810        0.8688436034       12.3350291664
  H        40.5282679434       35.2290432218        3.9521379754
  H        42.3232774181       34.4182330149        3.5909572453
  H        22.0875887762        0.6921097853       12.3519460857
  H        11.5967668397       18.7124581503       12.3825440470
  H        52.2645208872       18.4319240546        3.6774849556
  H        49.2556105859       16.4766040293        3.5843283883
  H        10.1503052499       15.7983853798       12.2925202241
  H        50.8500708811       17.6923748186        3.9540712917
  H        10.0459385325       17.3949896514       12.0518980579
  H        20.2135426132        0.0020831150       12.0422363083
  H        39.1836175388       36.1243925001        3.6863393521
 Ni        30.6512437196       17.6888658792        2.5843649527
 Ni        30.8167307622       16.3807575457       -0.3365470905
 Ni        29.5039134833       18.5541308109        0.3368025214
 Ni        29.7990927007       17.7067301806       13.8226741072
  O        10.6499477268       14.3651563385        5.4858558256
  O        12.6131276449       14.6574527129        6.5839155423
  O        49.1473970141       16.8459122943        7.9899765479
  O        50.3500571748       20.9360948579        5.6482113799
  O        48.3484445875       20.5931699203        6.6660666075
  O        11.0512642300       17.0538526660        6.5006664339
  O        50.3208908417       20.8817004243       10.4068594379
  O        48.3466582879       20.5866328048        9.3271481782
  O        49.5433264417       18.2483757470       10.0683074481
  O        12.3586718417       18.6246799072        7.9997376053
  O        48.6931304406       14.1486888405        6.7512812777
  O         8.2097193008       14.2107330354        9.3227211753
  O        10.7351434826       14.5067706732       10.6643082436
  O        12.5716721378       14.5827364610        9.3285763657
  O        22.8442087957        2.0421650965        5.4868968813
  O        21.6062035788        3.5926703828        6.5885619600
  O        42.0578465453       34.1373797798        7.9794188662
  O        37.9813396021       33.1359832753        5.5720929317
  O        39.2168214762       31.5745326766        6.6652183865
  O        20.3084391123        1.0400093621        6.5023894103
  O        38.0234961897       33.1834125023       10.4161573005
  O        39.2177746587       31.5823260546        9.3279887924
  O        40.6522726179       33.7695783360       10.0603543117
  O        18.2565004944        1.3764017319        7.9968998524
  O        44.6221339837       35.1005906219        6.7588747168
  O        24.2053579722        0.0000607985        9.3208527949
  O        22.7542542855        2.0592509596       10.5847494840
  O        21.6269546810        3.5986208522        9.3464038853
  O        27.5063421382       18.6281945589        5.4099193431
  O        26.6951177702       16.9170717197        6.6614715001
  O        30.6370277894       19.3333074382        8.0117585697
  O        33.5890717164       16.2765532867        5.6623517431
  O        34.2695729942       18.1679151830        6.7362007584
  O        29.5970762998       17.0060211028        6.5719336912
  O        33.4202649500       16.2839073913       10.5721978943
  O        34.2165311732       18.0894950829        9.4146482878
  O        31.6132954225       18.2385979760       10.1612839155
  O        30.2932616610       15.0972063102        8.0599519437
  O        28.5484733837       21.0171386420        6.8279323118
  O        28.5526851058       20.8903191536        9.4048640267
  O        27.4539260515       18.6758185339       10.6510372675
  O        26.6940307449       16.9234736911        9.4099497924
  O        13.1470269227       18.6936153269       10.5864138072
  O        13.9181681903       16.9160747183        9.4041292166
  O        50.5954927205       19.3501355023        8.0208139191
  O        47.6792557668       16.3278784913       10.4181307930
  O        46.9481127994       18.1754280901        9.3266447967
  O        11.0688392415       17.0158875874        9.4895424703
  O        47.6750702686       16.3362723540        5.6519302043
  O        46.9248397375       18.2357398042        6.6629024879
  O        49.5682426066       18.3176924111        5.9824482461
  O        10.3185756195       15.1002844632        7.9972046815
  O        52.6707380077       21.0279654758        9.2417935354
  O        12.1467648794       20.8913077249        6.6733571994
  O        13.1048493348       18.6142288870        5.3259985578
  O        13.9555663184       16.9868323188        6.6650752963
  O        29.9994179671       14.5849670822       10.7465581908
  O        28.0937672842       14.6554766361        9.4961712233
  O        32.0704492579       16.8413634891        7.9980537376
  O        30.9861472215       20.8749757665       10.4219409528
  O        32.9545780719       20.5803931856        9.3286086245
  O        29.5535020893       17.0533844864        9.5584407160
  O        30.8498428782       20.8800162615        5.6530732269
  O        32.8677704137       20.5851262273        6.6627101058
  O        31.6758596818       18.2460876399        5.9137245865
  O        28.2647642072       18.6158070406        8.0056397864
  O        32.4882804769       14.2038517568        9.2255953882
  O        32.4041571856       14.2139935284        6.7443265741
  O        29.9017139984       14.4327713258        5.4193902511
  O        28.0444918395       14.5820425776        6.7336748261
  O        17.8893217554        1.9665519991       10.6627524844
  O        18.9564721248        3.5271591897        9.4080351582
  O        39.1685151351       34.1385862294        7.9972537948
  O        43.2801462718       33.0590058685       10.3316737813
  O        42.0342885017       31.5065231024        9.2416245596
  O        20.3175448498        1.0366033503        9.4801096342
  O        43.2760480192       33.1825618560        5.5749528547
  O        42.0051750473       31.5841361226        6.5830763076
  O        40.5788528429       33.7748056158        5.9363064718
  O        22.3673939268        1.3850800474        7.9983319997
  O        36.6729090689       35.0996633953        9.2333439336
  O        16.4457810753        0.0641778947        6.6683142437
  O        17.9364627052        2.0432009506        5.3265126630
  O        18.9193412618        3.5930491680        6.6660446662
  O        29.7393003507       18.6848769407        3.9942999211
  O        29.7783469239       18.7626663704       12.0848716806
  O        31.2634030727       16.3492596753        4.0040212151
  O        31.6783167478       16.6331042758        1.3392054998
  O        30.6731723534       16.0436951254       13.8139231108
  O        28.8169552741       19.1257597257       14.6512443614
  O        39.4568584372       35.2438605787        4.0020594119
  O        19.1405650405        0.0042768688       11.9905991487
  O        41.9693723238       35.1725450690        4.0872752405
  O        21.6913122658       -0.0691970104       11.8959642636
  O        51.3644722096       18.6144156878        4.0053399890
  O        10.7509084779       18.7471155460       11.9051172227
  O        50.0799645913       16.4126956279        4.0917494662
  O         9.5243052887       16.4832062020       11.9911540137
 Zr         9.2970698551       16.0528035080        6.1823683587
 Zr        49.8362426368       16.0072636430        9.7468648553
 Zr        22.0729445970        0.0296572574        6.1894826834
 Zr        42.4608692907       35.1540829612        9.8015461762
 Zr        29.5947155064       19.0319707315        6.1989692500
 Zr        29.5545446059       19.1153910176        9.8998228813
 Zr        11.0377514782       19.0524149046        9.8279998242
 Zr        11.0435758976       19.1550528031        6.2512393230
 Zr        31.3549707928       16.0769484191        9.7021760931
 Zr        31.3541091282       15.9909987816        6.1260436188
 Zr        18.6009465556       -0.0020213322        9.7633730536
 Zr        18.5066532995       -0.0077040069        6.2135705805
 Zr        12.3017762195       16.3234135285        7.9905403117
 Zr        48.6158055914       18.8328267676        8.0108962442
 Zr        20.3163505418        2.4743376874        7.9918185313
 Zr        40.6427150781       32.6865564458        7.9783194173
 Zr        28.3200314806       16.3243134679        8.0550919410
 Zr        32.5921169156       18.8411670074        8.0106233899
  H        29.4573968498       16.9687587232        0.2814738481
  H        30.5246189260       18.8594955045        1.5547310899
