     566
 i =      114, E =     -4712.2465876619
  C        11.8587017151       14.0534385844        5.7415709311
  C        12.4561888302       12.8905125704        5.0232366385
  C        11.7045150362       12.1714680216        4.0816466912
  C        12.2809223444       11.1092439395        3.3893433143
  C        13.6215467413       10.7395393666        3.6169934379
  C        14.3547207348       11.4432611391        4.5903535256
  C        13.7817866901       12.5082356695        5.2818343773
  C        14.2610642676        9.6488305406        2.8436127881
  C        14.2561396857        9.6566260750        1.4219071278
  C        13.7429255442       10.7587297867        0.6680067203
  C        49.1266379642       21.2332415050        5.8798161368
  C        48.5497662749       22.4011023767        5.1527250818
  C        49.2997997352       23.0684219920        4.1717211919
  C        48.7328609455       24.1075222821        3.4384776593
  C        47.4022998181       24.5091404117        3.6670332103
  C        46.6713447317       23.8602709592        4.6805616678
  C        47.2338017394       22.8154035284        5.4099692873
  C        46.7720854629       25.5868454166        2.8697410858
  C        46.7612114358       25.5573130322        1.4479708637
  C        47.2613038036       24.4423175717        0.7044345366
  C        14.8599533843        8.5702243149        0.7086255541
  C        14.8919963927        8.5969516675        3.5202430302
  C        49.1130338827       21.2034437869       10.1453734578
  C        48.5277197388       22.3649257797       10.8723266595
  C        49.2669568183       23.0255249785       11.8653290447
  C        48.6907088401       24.0601176550       12.5967912687
  C        47.3603539368       24.4570622461       12.3584841886
  C        46.6399838763       23.8123448703       11.3347994965
  C        47.2134473229       22.7763881130       10.6030093546
  C        46.7218929881       25.5319742537       13.1495813690
  C        46.7335937785       25.5282707744       14.5712931414
  C        47.2491151474       24.4290912265       15.3276691787
  C        40.5979884587       17.0595551425       15.2904226247
  C        40.5867986174       17.0392644328       12.4794103202
  C        11.8827900404       14.0864097510       10.2855437370
  C        12.4718758753       12.9104683378       10.9896975393
  C        11.7143284526       12.1774552072       11.9159435520
  C        12.2807815468       11.0949180216       12.5843421824
  C        13.6195128941       10.7209100718       12.3524073929
  C        14.3574863085       11.4362704684       11.3914439689
  C        13.7922067101       12.5175243340       10.7187640028
  C        14.2530372130        9.6241015724       13.1228198871
  C        14.2518964400        9.6441111459       14.5446653397
  C        13.7421943196       10.7531276292       15.2917523799
  C        22.5072886052        3.2437770391        5.7463823141
  C        23.2122501477        4.3457693055        5.0311850637
  C        24.2102285302        4.0598673934        4.0876143793
  C        24.8365610094        5.0944118678        3.3971626551
  C        24.4804159833        6.4378078883        3.6291435803
  C        23.5054668317        6.7152119650        4.6050198484
  C        22.8753888391        5.6825362204        5.2948048844
  C        25.0976861619        7.5416782779        2.8581534229
  C        25.0970566930        7.5332551853        1.4362371087
  C        24.4100883237        6.5332921821        0.6774175488
  C        38.2976670380       31.9269507293        5.8514616305
  C        37.5556963405       30.8378924235        5.1501644180
  C        36.5898546500       31.1445375559        4.1788684433
  C        35.9586042696       30.1267661175        3.4684621764
  C        36.2772693854       28.7748961819        3.7050602942
  C        37.2123759145       28.4757493103        4.7142255292
  C        37.8475453111       29.4925054644        5.4242342767
  C        35.6670014982       27.6863839119        2.9053448025
  C        35.7087145819       27.7007407679        1.4834051684
  C        36.4208628804       28.7023639332        0.7509325601
  C        25.7323541541        8.6035161391        0.7275744306
  C        25.6847858261        8.6160256151        3.5391766565
  C        38.3304648280       31.9603606283       10.1606115414
  C        37.6145438317       30.8867675356       10.9100585864
  C        36.6804790371       31.1951062537       11.9112930341
  C        36.0713244494       30.1774623835       12.6437479311
  C        36.3810734805       28.8240940548       12.4000644633
  C        37.2962386259       28.5257162497       11.3715725330
  C        37.9069703119       29.5398202156       10.6399675077
  C        35.7668462895       27.7247549125       13.1815943132
  C        35.7591969415       27.7206642649       14.6044005434
  C        36.4432328212       28.7131836194       15.3742630921
  C        46.1354714948       26.6208284685       15.2814633491
  C        46.0878652217       26.5803195291       12.4735699643
  C        22.4733997203        3.2582310561       10.2535269975
  C        23.1945548657        4.3643678653       10.9593075060
  C        24.2091492947        4.0712657601       11.8852822462
  C        24.8604121041        5.0962052174       12.5689297208
  C        24.5191575192        6.4466193304       12.3519498706
  C        23.5299517185        6.7330016707       11.3917283211
  C        22.8747232452        5.7081787078       10.7072874975
  C        25.1592230485        7.5387151088       13.1327910496
  C        25.1293550792        7.5311102531       14.5562840292
  C        24.4224534375        6.5341615378       15.3006107879
  C        26.5613550375       17.8259836417        5.7845965089
  C        25.2632299193       17.8818206765        5.0558387365
  C        25.0202688087       18.8740420204        4.0936014325
  C        23.8110911553       18.8995338944        3.4033277823
  C        22.8137862511       17.9359818291        3.6539632951
  C        23.0531859740       16.9670745881        4.6462136792
  C        24.2633227642       16.9363035576        5.3348677756
  C        21.5474690541       17.9244060974        2.8841721315
  C        21.5553012754       17.9062970333        1.4624419684
  C        22.7642267183       17.7775611958        0.7083020106
  C        34.4397862360       17.1972415604        5.9254617784
  C        35.7361648750       17.1528770040        5.1826873138
  C        35.9515045256       16.1685837071        4.2046608974
  C        37.1298154081       16.1546332660        3.4633453452
  C        38.1293499525       17.1239993193        3.6775136353
  C        37.9181287376       18.0894329083        4.6806913886
  C        36.7359093355       18.1086560946        5.4196734026
  C        39.3794226956       17.1283574384        2.8802867605
  C        39.3624675154       17.1138111593        1.4578521745
  C        38.1479183254       17.2167567505        0.7098986529
  C        20.3120264487       17.9317736434        0.7498475302
  C        20.3214979041       17.9254925881        3.5623346666
  C        34.3378942612       17.1489007842       10.2683303439
  C        35.6480367099       17.0479929329       10.9719947604
  C        35.8700873802       16.0867797142       11.9708188471
  C        37.0797339643       16.0585997646       12.6619349964
  C        38.0982366922       16.9921782590       12.3811596799
  C        37.8819868622       17.9219051247       11.3457598249
  C        36.6746125527       17.9534325539       10.6543056726
  C        39.3603266074       17.0240735964       13.1572521435
  C        39.3526856743       17.0617857728       14.5794909669
  C        38.1433028973       17.1911864678       15.3333329132
  C        35.1209732648       26.6424410859       15.3039555642
  C        35.1854108611       26.6513875771       12.4940148081
  C        26.5652536867       17.8269521550       10.3249253046
  C        25.2516531801       17.8782850779       11.0268303751
  C        24.9953785306       18.8778660402       11.9776261978
  C        23.7779677949       18.9060008875       12.6512698415
  C        22.7889854111       17.9350795093       12.3962586383
  C        23.0396485190       16.9616609298       11.4124302731
  C        24.2577521767       16.9307668741       10.7375514903
  C        21.5244407273       17.9182383448       13.1653767023
  C        21.5430617432       17.9021529342       14.5864165877
  C        22.7578808324       17.7755607410       15.3320373016
  C        14.0456101797       17.8319994121       10.2842710401
  C        15.3519132628       17.8963253229       11.0015608882
  C        15.6102573910       18.9081046726       11.9391450066
  C        16.8207757185       18.9339762517       12.6280119913
  C        17.8042662948       17.9507305625       12.4001792437
  C        17.5518696914       16.9647273978       11.4282262825
  C        16.3409485464       16.9344229787       10.7407268935
  C        19.0701647921       17.9329716728       13.1711685193
  C        19.0618694258       17.9253406502       14.5928611939
  C        17.8506809052       17.8282676137       15.3476170432
  C        46.7950550643       17.2115180786       10.1521580078
  C        45.4904825667       17.1280276765       10.8783675624
  C        45.2822205986       16.1415415494       11.8555218973
  C        44.0916595605       16.1028138303       12.5783051030
  C        43.0734164231       17.0496547655       12.3490184563
  C        43.2762819428       18.0116960606       11.3403025357
  C        44.4685412417       18.0547898713       10.6185381121
  C        41.8197229149       17.0499295123       13.1445944311
  C        41.8377985809       17.0703084729       14.5680154936
  C        43.0528104802       17.1849401734       15.3147448801
  C        20.3053455251       17.9290691997       15.3057658066
  C        20.2957986531       17.9128700297       12.4933565576
  C        46.7857636332       17.2361259993        5.8802270139
  C        45.4888373003       17.1406560721        5.1480288780
  C        45.2751879350       16.1499141816        4.1771302240
  C        44.0912059096       16.1273909630        3.4429349980
  C        43.0881517231       17.0924555306        3.6612129156
  C        43.2951364817       18.0569317828        4.6658749391
  C        44.4801574918       18.0857633278        5.3951272436
  C        41.8361396730       17.1070686733        2.8702396404
  C        41.8465413328       17.0983012607        1.4480950668
  C        43.0571215362       17.1944436453        0.6918463407
  C        46.1531780268       26.6371907398        0.7262280864
  C        46.1620825318       26.6559369173        3.5358808749
  C        14.0402211417       17.8286066364        5.7065980962
  C        15.3544241651       17.8977437521        5.0073879681
  C        15.6237844177       18.9170638678        4.0822556763
  C        16.8479672007       18.9530491861        3.4197510326
  C        17.8273322583       17.9686179454        3.6581447663
  C        17.5638997564       16.9760280822        4.6191285244
  C        16.3419650581       16.9396836866        5.2854318278
  C        19.0931618080       17.9470606786        2.8903360595
  C        19.0740193391       17.9314415631        1.4693314038
  C        17.8566713297       17.8306968267        0.7239430761
  C        28.8250971246       14.1561645853       10.4215439481
  C        28.2545987308       12.9721904125       11.1219833945
  C        28.9825685216       12.2491396841       12.0792827868
  C        28.4041142165       11.1486864133       12.7108223554
  C        27.0852783023       10.7461158108       12.4119569062
  C        26.3820561697       11.4527467585       11.4194017508
  C        26.9556189711       12.5504961452       10.7867974102
  C        26.4201114317        9.6499890410       13.1557712949
  C        26.3777347554        9.6767499638       14.5763312571
  C        26.8552476814       10.7947705606       15.3311303412
  C        32.1808372516       21.2345314050       10.1454336913
  C        32.7798563356       22.4002418502       10.8590075602
  C        32.0311280252       23.0803408059       11.8329277463
  C        32.6010219823       24.1186553628       12.5628445920
  C        33.9369326715       24.5074162952       12.3424999761
  C        34.6677766586       23.8476298234       11.3358099610
  C        34.1001771499       22.8034568044       10.6068191422
  C        34.5624247101       25.5823234805       13.1482607660
  C        34.5380390391       25.5568605591       14.5706715050
  C        34.0222670537       24.4431634225       15.3059336693
  C        25.7550451805        8.5977397774       15.2826650793
  C        25.7929229908        8.5993991624       12.4696651089
  C        32.0690768082       21.1956371008        5.8727316208
  C        32.6400489213       22.3576482870        5.1308072408
  C        31.9124376569       22.9939998173        4.1130434067
  C        32.4849382048       24.0360271357        3.3852617939
  C        33.7989563760       24.4705609472        3.6522815744
  C        34.5068326206       23.8464573907        4.6981139587
  C        33.9399290759       22.8021081385        5.4228695063
  C        34.4419116379       25.5551591032        2.8722391567
  C        34.4758097898       25.5434573282        1.4495325093
  C        33.9916379296       24.4371186152        0.6826526784
  C        40.6019818824       17.0799627840        0.7364234484
  C        40.6103037494       17.1403082031        3.5466600356
  C        28.7361766869       14.0659995243        5.7863285135
  C        28.1216967442       12.9149027647        5.0615039766
  C        28.8565115234       12.2168751167        4.0907292013
  C        28.2776688420       11.1551496998        3.4011905803
  C        26.9461198987       10.7670288894        3.6522888851
  C        26.2286531254       11.4514349288        4.6513568059
  C        26.8073949493       12.5122771020        5.3461132726
  C        26.3080475444        9.6789576225        2.8731646554
  C        26.3195042472        9.6929729309        1.4511447563
  C        26.8253491994       10.8040547955        0.7063955153
  C        18.1354698080        3.1809401435       10.3171037751
  C        17.4058305150        4.2780966894       11.0154616095
  C        16.3901417954        3.9995153065       11.9429710416
  C        15.7422340565        5.0393399890       12.6065294354
  C        16.0938803159        6.3831455124       12.3669007129
  C        17.0831266750        6.6528842772       11.4030479805
  C        17.7324409412        5.6156983823       10.7379476402
  C        15.4694607229        7.4907395953       13.1300502934
  C        15.4848311018        7.4900676886       14.5517772796
  C        16.1864558066        6.4964855626       15.3049267550
  C        42.9457263331       31.8595893351       10.0728235301
  C        43.6460842865       30.7719013469       10.8168052906
  C        44.5915528272       31.0932429465       11.8029257829
  C        45.1972638511       30.0877136131       12.5506083837
  C        44.8709094120       28.7346415444       12.3357044599
  C        43.9451354867       28.4202824803       11.3224488379
  C        43.3363182658       29.4254103809       10.5743858155
  C        45.4885483129       27.6553571760       13.1388778912
  C        45.4926902692       27.6809350011       14.5605739473
  C        44.8055365092       28.6889223753       15.3072164060
  C        14.8559602010        8.5626012213       15.2641819128
  C        14.8741557014        8.5625264426       12.4515035682
  C        42.9463949065       31.9616037366        5.8090041954
  C        43.6915199781       30.8854300290        5.0954580774
  C        44.6563476546       31.1912777761        4.1233714721
  C        45.2778101722       30.1716574979        3.4056340664
  C        44.9537828122       28.8213687862        3.6430904777
  C        44.0200237216       28.5237598186        4.6536241507
  C        43.3918102683       29.5405569997        5.3658070599
  C        45.5628060842       27.7239482838        2.8578374673
  C        45.5331499494       27.7173026471        1.4365384026
  C        44.8267957017       28.7075268734        0.6836104429
  C        35.0921361362       26.6341359262        0.7497770539
  C        35.0499765238       26.6139653972        3.5601560060
  C        18.1488782717        3.2468889239        5.7068393694
  C        17.4303473186        4.3437726278        4.9974598581
  C        16.4150615277        4.0524728240        4.0739741699
  C        15.7667170988        5.0830573853        3.3985344553
  C        16.1213875706        6.4283199079        3.6211048758
  C        17.1128503813        6.7117509551        4.5782754769
  C        17.7605310129        5.6828735032        5.2581138154
  C        15.4907426075        7.5239602157        2.8486523917
  C        15.4963163104        7.5071902635        1.4275035829
  C        16.1929085224        6.5054145414        0.6807449022
  H        10.6723474339       12.4654848187        3.9046722864
  H        11.6946236272       10.5506515799        2.6628974569
  H        15.3918105070       11.1688243805        4.7719963102
  H        14.3512908888       13.0715310566        6.0171860644
  H        13.3761053640       11.6309387399        1.2013112441
  H        50.3225399094       22.7484533373        3.9870375453
  H        49.3193896631       24.6228140629        2.6809506110
  H        45.6418635541       24.1610846305        4.8637310134
  H        46.6628097431       22.2902255613        6.1721243612
  H        47.6299480213       23.5759612303        1.2460808340
  H        14.8725588348        8.5883090894        4.6085549739
  H        50.2869493920       22.7025548139       12.0603197076
  H        49.2691329725       24.5754741242       13.3603380471
  H        45.6106564798       24.1097813865       11.1456210074
  H        46.6526027068       22.2543427851        9.8313822949
  H        47.6080733195       23.5520527029       14.7967628336
  H        40.5825903116       16.9912429682       11.3919614841
  H        48.6869023973       14.0953302272        7.7999778762
  H        10.6809286561       12.4667129002       12.0934437123
  H        11.6889589164       10.5246520152       13.2971149316
  H        15.3928685732       11.1582433014       11.2054465521
  H        14.3646420857       13.0867620403        9.9902066273
  H        13.3754303076       11.6217758237       14.7531285135
  H        47.9301075169       14.2190748828        9.7112536454
  H        47.7798084429       14.3734144130        6.4951889611
  H        49.0808897107       18.5510641816       10.8664481244
  H        10.4157939550       14.1344084840        7.9990669728
  H        24.4750544897        3.0203185243        3.9077732241
  H        25.6135782936        4.8715593355        2.6691409183
  H        23.2212668734        7.7491693043        4.7893753039
  H        22.1033113513        5.8882102259        6.0322590729
  H        23.8403587612        5.7755422075        1.2075710246
  H        36.3583005870       32.1886569190        3.9819689796
  H        35.2107887558       30.3707408187        2.7170376228
  H        37.4672210423       27.4355194988        4.9063642127
  H        38.5947061328       29.2665444743        6.1814583014
  H        36.9807458585       29.4530527491        1.3010102051
  H        25.7028041866        8.5972140777        4.6273756689
  H        36.4507244839       32.2390803321       12.1123423637
  H        35.3402787974       30.4242757198       13.4105222970
  H        37.5498650148       27.4858691548       11.1761723863
  H        38.6338505162       29.3122345052        9.8640099625
  H        37.0211063460       29.4718261423       14.8541861087
  H        46.1093027553       26.5877857114       11.3855353368
  H        44.6681638550       35.1160248359        7.8140533379
  H        24.4771145099        3.0305286899       12.0531897097
  H        25.6472725053        4.8580619969       13.2815805998
  H        23.2524602509        7.7698157008       11.2125002602
  H        22.0951371546        5.9304636486        9.9821062791
  H        23.8618847615        5.7775729618       14.7594036242
  H        44.9531779711       34.3898905034        9.6948918566
  H        44.9012675273       34.2067702796        6.4905365715
  H        40.6660294073       33.2093960357       10.8532735048
  H        23.1511361460        1.9577550442        8.0027942065
  H        25.7880708867       19.6195766832        3.9000924006
  H        23.6245574358       19.6735437632        2.6620782567
  H        22.2925687333       16.2150136539        4.8454631341
  H        24.4629648787       16.1750576611        6.0851644905
  H        23.7023325237       17.6482378883        1.2404271797
  H        35.1771663169       15.4249190973        4.0324524844
  H        37.2913196754       15.3833179171        2.7133955728
  H        38.6791865539       18.8480789438        4.8518090876
  H        36.5589492499       18.8710364069        6.1749311112
  H        37.2133018305       17.3497401334        1.2473766261
  H        20.3241431534       17.9621042906        4.6502521186
  H        35.0804163454       15.3764734544       12.2049788676
  H        37.2463582011       15.3089049080       13.4323000795
  H        38.6583263616       18.6494281515       11.1180558893
  H        36.4937726793       18.6905940360        9.8757807925
  H        37.2040920977       17.3052543936       14.8000884905
  H        35.1699756533       26.6757549009       11.4060085812
  H        28.4983345927       21.0753322472        7.8869840275
  H        25.7628840087       19.6243787366       12.1693517386
  H        23.5776696256       19.6842880596       13.3844598209
  H        22.2829390969       16.2063279879       11.2105988847
  H        24.4680527935       16.1674319636        9.9923452161
  H        23.6910246679       17.6446506657       14.7922835548
  H        29.0153059462       21.7168694461        9.7321196353
  H        29.1970477031       21.6973652553        6.5575760740
  H        32.0880147298       18.5740183422       11.0163195033
  H        27.3660713277       19.0184594533        8.0652924265
  H        14.8515963429       19.6678570957       12.1130111751
  H        17.0193780655       19.7226458484       13.3505492303
  H        18.3029942138       16.1991802001       11.2448371001
  H        16.1316140810       16.1602695131       10.0064140254
  H        16.9102219690       17.7193175511       14.8154470762
  H        46.0722351262       15.4186432843       12.0454275758
  H        43.9383060737       15.3312833498       13.3297892887
  H        42.5011028370       18.7521471669       11.1535570776
  H        44.6370728545       18.8157107181        9.8598353404
  H        43.9889921248       17.2962170963       14.7752491818
  H        20.2938576086       17.9466265497       11.4053484022
  H        46.0516900535       15.4088464276        4.0012747175
  H        43.9294070641       15.3545229201        2.6946740411
  H        42.5286311066       18.8088938254        4.8415570888
  H        44.6573487632       18.8486839833        6.1492858409
  H        43.9968912259       17.3124650524        1.2237287865
  H        46.1988601067       26.6824542974        4.6233294477
  H        52.7413331118       21.0627477135        8.1946167058
  H        14.8645295492       19.6745196163        3.9008723058
  H        17.0594502557       19.7465143962        2.7062175112
  H        18.3134366216       16.2102563734        4.8078186497
  H        16.1210395008       16.1625302614        6.0129913868
  H        16.9206803534       17.7235057723        1.2639554758
  H        52.3229873192       21.6737845647        6.2944550476
  H        52.0140994377       21.7030347411        9.4955544493
  H        49.0682892347       18.6085046043        5.2039660502
  H        13.2472524497       19.0163273228        7.9760273060
  H        29.9985748832       12.5594468735       12.3147935358
  H        28.9714040705       10.5882201820       13.4507906661
  H        25.3628287400       11.1564203351       11.1803121675
  H        26.4059894863       13.1126243405       10.0363925113
  H        27.2182506312       11.6689133333       14.7994800160
  H        31.0053225668       22.7695823782       12.0146808702
  H        32.0134963695       24.6422082921       13.3138249600
  H        35.7013234291       24.1374790387       11.1575906918
  H        34.6730162940       22.2712981091        9.8508496563
  H        33.6747420221       23.5712235752       14.7591984951
  H        25.8386925123        8.5827640842       11.3820418359
  H        30.9042220375       22.6493799575        3.8934380417
  H        31.9118945620       24.5282502990        2.6025209928
  H        35.5240606598       24.1676719007        4.9122587918
  H        34.4957222402       22.3007331555        6.2114989406
  H        33.6205256996       23.5602193142        1.2055244465
  H        40.6142598484       17.1206153115        4.6348435534
  H        32.5213211940       14.1357208668        8.1485608155
  H        29.8812983993       12.5220307424        3.8927753554
  H        28.8555871492       10.6106630620        2.6576753636
  H        25.1982069022       11.1655340776        4.8523334456
  H        26.2489030162       13.0572078626        6.1035090402
  H        27.1645373668       11.6846016490        1.2442162524
  H        33.3052410234       14.2702208811        6.3869568021
  H        33.4032181106       14.2988207371        9.5567282518
  H        32.0489460157       18.4626068252        5.1475662860
  H        30.1879386771       14.1326057429        8.0892564980
  H        16.1182690273        2.9629604421       12.1293621274
  H        14.9528378878        4.8197524658       13.3221864526
  H        17.3653454339        7.6858196330       11.2099413412
  H        18.5144567754        5.8185625602       10.0101347156
  H        16.7529144710        5.7390888205       14.7714033438
  H        44.8277669911       32.1403339564       11.9771426172
  H        45.9370901476       30.3414880174       13.3065848994
  H        43.6824934570       27.3782047742       11.1523050168
  H        42.5997773170       29.1900560565        9.8096511253
  H        44.2301414356       29.4366667644       14.7689228308
  H        14.8503702735        8.5457781373       11.3632836588
  H        44.9000892403       32.2339371896        3.9320617239
  H        46.0248898577       30.4128341225        2.6525525669
  H        43.7628104692       27.4840595401        4.8450065399
  H        42.6450648735       29.3177987981        6.1240229620
  H        44.2682503212       29.4703732199        1.2182164190
  H        34.9982649366       26.6275964447        4.6472648335
  H        36.6052764548       35.1340707009        8.1805883741
  H        16.1439066668        3.0128971610        3.9043584820
  H        14.9743113785        4.8561299882        2.6885643859
  H        17.3963934000        7.7472240054        4.7550834353
  H        18.5433714165        5.8934125357        5.9828924230
  H        16.7644260213        5.7552002172        1.2191303204
  H        36.2792640066       34.4820077489        6.2733455385
  H        36.3807529696       34.2091209256        9.4995580883
  H        40.5786814552       33.2020584346        5.1540575809
  H        17.4718239205        1.9475265302        7.9742202286
  H        29.3292409603       19.7473850102       12.5779176807
  H        28.7592651249       18.8339522069        3.7353408166
  H        31.7392205680       15.7385158376        3.5431813773
  H        28.0775878855       18.3791915160       14.6125741322
  H        29.4625196784       15.4672930057       14.2310616201
  H        32.3909116225       17.1729326396        1.4351880794
  H        18.8530877124        0.8689820355       12.3351782116
  H        40.5281521278       35.2290852704        3.9521233875
  H        42.3233707930       34.4183232322        3.5910137474
  H        22.0877941101        0.6920088498       12.3518814549
  H        11.5967893598       18.7124632307       12.3825085089
  H        52.2652973425       18.4315019895        3.6780086775
  H        49.2552390025       16.4765917939        3.5843279774
  H        10.1503320217       15.7983854827       12.2924999328
  H        50.8504623280       17.6927324236        3.9540067583
  H        10.0459628443       17.3949986507       12.0518675433
  H        20.2141836991        0.0022818684       12.0421381148
  H        39.1834252978       36.1241321167        3.6860819272
 Ni        30.5263805197       17.5655051650        2.8283390244
 Ni        30.8607683027       16.3493569445       -0.0801144263
 Ni        29.5887273293       18.2577379796        0.4196820110
 Ni        29.9261609131       17.6254067629       13.3235676181
  O        10.6498954027       14.3651725764        5.4858302147
  O        12.6130793328       14.6574122029        6.5839062037
  O        49.1473481779       16.8459117954        7.9899107577
  O        50.3500926408       20.9360650504        5.6481919025
  O        48.3484476584       20.5931716066        6.6660432354
  O        11.0509207045       17.0539830741        6.5007058028
  O        50.3207805684       20.8817150308       10.4068860662
  O        48.3466163332       20.5866076563        9.3271173116
  O        49.5434000343       18.2483698269       10.0682939588
  O        12.3587543346       18.6247255934        7.9997649529
  O        48.6931026608       14.1487302646        6.7512664223
  O         8.2097317368       14.2107117183        9.3226946738
  O        10.7351457875       14.5067520115       10.6643193850
  O        12.5716828896       14.5827003945        9.3285907648
  O        22.8443029696        2.0424230196        5.4869299117
  O        21.6063703408        3.5928868251        6.5885658205
  O        42.0579254303       34.1373844305        7.9792538159
  O        37.9812173913       33.1358513025        5.5721879363
  O        39.2171594323       31.5748601645        6.6655504084
  O        20.3086242359        1.0404514852        6.5024122179
  O        38.0242390517       33.1845990811       10.4158249935
  O        39.2184538764       31.5830534887        9.3274032708
  O        40.6522737135       33.7695533230       10.0602685904
  O        18.2564821684        1.3763060774        7.9968651428
  O        44.6221416077       35.1006051177        6.7588302178
  O        24.2053761968        0.0000357612        9.3208201536
  O        22.7543040094        2.0586899102       10.5847481885
  O        21.6273337498        3.5990892630        9.3476008261
  O        27.4566270065       18.6958642528        5.4939940919
  O        26.6912481771       16.9156447749        6.6696256234
  O        30.6341171466       19.3415835224        8.0736649782
  O        33.5917723735       16.2776665501        5.6751970893
  O        34.2644598576       18.1730854918        6.7417939620
  O        29.5355093070       17.0037892560        6.5791242192
  O        33.4209429262       16.2832498405       10.5772306983
  O        34.2147680858       18.0898903573        9.4193915077
  O        31.6018555947       18.2433973597       10.2427842031
  O        30.2913425672       15.0979799509        8.0749988791
  O        28.5478527917       21.0250168679        6.8361907659
  O        28.5148841046       20.9500555328        9.4049060584
  O        27.4537887004       18.6770768316       10.6580608926
  O        26.6908280206       16.9251341392        9.4169186585
  O        13.1467117362       18.6937083629       10.5863583680
  O        13.9179412232       16.9160770801        9.4041278265
  O        50.5955269474       19.3501766183        8.0208470385
  O        47.6795474474       16.3278310743       10.4180927766
  O        46.9481973135       18.1754288781        9.3266614848
  O        11.0688040649       17.0159796689        9.4895767653
  O        47.6744489931       16.3364300395        5.6516926731
  O        46.9247318381       18.2358393780        6.6628458231
  O        49.5686236763       18.3177328134        5.9824411235
  O        10.3185796195       15.1002744855        7.9971777010
  O        52.6707357645       21.0279940185        9.2418010986
  O        12.1468080189       20.8913821105        6.6733937131
  O        13.1050343166       18.6141842011        5.3262614851
  O        13.9550745751       16.9864535100        6.6656319083
  O        29.9986568051       14.5832454080       10.7474611972
  O        28.0931836099       14.6538233428        9.5010139497
  O        32.0717143319       16.8464796706        8.0606408888
  O        30.9672910154       20.9494427930       10.4060606370
  O        32.9475814806       20.5844091896        9.3384349421
  O        29.5595650700       17.0698576317        9.5723329202
  O        30.8452857717       20.8795176148        5.6596003362
  O        32.8659319452       20.5820451240        6.6659404221
  O        31.6161725030       18.2501451630        5.9929611045
  O        28.2552597749       18.6277784815        8.0697808651
  O        32.4887199114       14.2057489020        9.2392071454
  O        32.4041793443       14.2123230426        6.7486124982
  O        29.9029642571       14.4389191831        5.4237908359
  O        28.0443910625       14.5814347246        6.7396527278
  O        17.8893209603        1.9666218319       10.6627466186
  O        18.9565134560        3.5271955688        9.4080205382
  O        39.1685485624       34.1386433938        7.9971338319
  O        43.2801557896       33.0589875633       10.3316782962
  O        42.0343388546       31.5064961541        9.2415954362
  O        20.3177496399        1.0367946327        9.4800445322
  O        43.2760700808       33.1825707388        5.5749102187
  O        42.0052077175       31.5841059815        6.5830053928
  O        40.5789299713       33.7751173172        5.9359162790
  O        22.3674744013        1.3852144308        7.9983223981
  O        36.6728988282       35.0997095291        9.2332812363
  O        16.4458494137        0.0642116480        6.6682616501
  O        17.9365293240        2.0432936764        5.3265408111
  O        18.9194287490        3.5930638441        6.6660974390
  O        29.6543808867       18.6953021172        4.0936416913
  O        29.7840818707       19.0531156587       12.0677509547
  O        31.3876154890       16.4101118321        4.1575340509
  O        31.6383226308       16.5659460766        1.5785872212
  O        30.2474812374       16.0473621939       14.2357010879
  O        29.0218185926       18.6217638667       14.6574111453
  O        39.4568173577       35.2437382384        4.0020514325
  O        19.1411188767        0.0045150821       11.9905331743
  O        41.9695576313       35.1727589511        4.0872103442
  O        21.6913987638       -0.0692650515       11.8959643695
  O        51.3651415654       18.6144224012        4.0053532373
  O        10.7509259839       18.7471121367       11.9050941162
  O        50.0795465653       16.4127214518        4.0918199165
  O         9.5243175803       16.4832064043       11.9911627238
 Zr         9.2970003563       16.0528435817        6.1822481244
 Zr        49.8363610390       16.0072527794        9.7468069793
 Zr        22.0729108751        0.0297813039        6.1893291369
 Zr        42.4608472123       35.1539698849        9.8013984811
 Zr        29.5556079007       19.0414193291        6.2583147773
 Zr        29.5441211384       19.1701156477        9.9015266854
 Zr        11.0377588697       19.0525398470        9.8280209540
 Zr        11.0437419381       19.1551537900        6.2513077305
 Zr        31.3392126152       16.0819192770        9.7476845575
 Zr        31.3470252352       15.9918013682        6.2201740244
 Zr        18.6009749069       -0.0017662468        9.7632877649
 Zr        18.5067583270       -0.0076012963        6.2136085042
 Zr        12.3015823880       16.3233510730        7.9905947171
 Zr        48.6159605877       18.8328408161        8.0108051316
 Zr        20.3165619271        2.4745539034        7.9919769400
 Zr        40.6428542456       32.6866583321        7.9779942592
 Zr        28.3069498458       16.3244412423        8.0730312374
 Zr        32.5927310893       18.8519786116        8.0332646146
  H        29.2508423462       17.6641755887        1.7873130803
  H        28.8909832179       19.3825673924        1.0517866200
