     576
 i =      202, E =     -4780.0398995805
  C        11.8587364876       14.0534649928        5.7415473000
  C        12.4561991409       12.8906092577        5.0233074665
  C        11.7045800392       12.1717271103        4.0815264071
  C        12.2810039438       11.1095568440        3.3891967918
  C        13.6215637752       10.7396965221        3.6170092216
  C        14.3546378855       11.4432195193        4.5905903925
  C        13.7817232090       12.5081699624        5.2820971057
  C        14.2611028096        9.6490571229        2.8435971702
  C        14.2563155943        9.6569740772        1.4219002934
  C        13.7431623479       10.7591000383        0.6679871126
  C        49.1268365165       21.2330897554        5.8795748882
  C        48.5501840647       22.4010808194        5.1526478136
  C        49.3001215269       23.0681593950        4.1713956631
  C        48.7332074832       24.1073021797        3.4382051548
  C        47.4028154678       24.5093299789        3.6671047431
  C        46.6720497461       23.8607853033        4.6809848473
  C        47.2344546180       22.8158797452        5.4103503171
  C        46.7725367696       25.5869648335        2.8697944428
  C        46.7615191694       25.5572947637        1.4480310531
  C        47.2615304945       24.4422647472        0.7044906422
  C        14.8602974924        8.5706666904        0.7086278833
  C        14.8919823525        8.5971549384        3.5202424955
  C        49.1132266336       21.2035196978       10.1452179761
  C        48.5279274642       22.3648894951       10.8722789203
  C        49.2670389768       23.0252910689       11.8655141097
  C        48.6907638446       24.0598823020       12.5969462276
  C        47.3604645034       24.4569765385       12.3585373615
  C        46.6402457914       23.8124370177       11.3346234654
  C        47.2137138627       22.7764955082       10.6028355700
  C        46.7219893102       25.5318679005       13.1496339452
  C        46.7337346583       25.5281497370       14.5713416689
  C        47.2492476767       24.4289766179       15.3277280051
  C        40.6158739257       17.0923265259       15.3147948827
  C        40.6318004505       17.1092779967       12.5046602287
  C        11.8830199776       14.0864807572       10.2855100175
  C        12.4722915381       12.9107643698       10.9896808169
  C        11.7148939324       12.1777316863       11.9160494015
  C        12.2815161283       11.0952863052       12.5844102861
  C        13.6202671003       10.7213707488       12.3523912112
  C        14.3580717218       11.4367555934       11.3913157223
  C        13.7926470088       12.5179241025       10.7186446051
  C        14.2538710981        9.6246520044       13.1228111220
  C        14.2525042113        9.6446343538       14.5446441772
  C        13.7426272612       10.7535708479       15.2917338241
  C        22.5136320988        3.2449871699        5.7529821971
  C        23.2316047646        4.3492561820        5.0543210397
  C        24.2276224173        4.0669904404        4.1075208530
  C        24.8583817136        5.1047707012        3.4259451454
  C        24.5095179052        6.4479968237        3.6703870653
  C        23.5419863224        6.7216651311        4.6545614850
  C        22.9064720009        5.6856858786        5.3345994268
  C        25.1168017943        7.5534183580        2.8932826110
  C        25.0846685289        7.5471421313        1.4716689528
  C        24.3800647996        6.5482862127        0.7273146394
  C        38.3012990752       31.9300820774        5.8496977254
  C        37.5679996307       30.8418625592        5.1417355784
  C        36.6073345364       31.1480196573        4.1656499399
  C        35.9863182459       30.1293900066        3.4482596595
  C        36.3109765305       28.7793927175        3.6853952186
  C        37.2416096383       28.4806949363        4.6983698784
  C        37.8669268307       29.4980666543        5.4145283795
  C        35.7059992346       27.6890623441        2.8878162532
  C        35.7410247447       27.7020927044        1.4665665414
  C        36.4499377800       28.7028503401        0.7301560836
  C        25.7047418734        8.6178276381        0.7499708064
  C        25.7176310484        8.6276627801        3.5617972418
  C        38.3288920742       31.9618184492       10.1568188373
  C        37.6079748644       30.8885813779       10.8997732043
  C        36.6787355361       31.1973727117       11.9050003470
  C        36.0685319207       30.1791160787       12.6349220407
  C        36.3731887135       28.8262587158       12.3835246072
  C        37.2804893738       28.5274559106       11.3485517531
  C        37.8927837070       29.5422170053       10.6198456002
  C        35.7639134778       27.7273775705       13.1674747923
  C        35.7709044343       27.7215502089       14.5896419230
  C        36.4636555189       28.7126536882       15.3534329218
  C        46.1356029854       26.6206971594       15.2815126729
  C        46.0879645326       26.5802224831       12.4736181208
  C        22.4605674015        3.2555821816       10.2576074137
  C        23.1540277728        4.3638107284       10.9808129987
  C        24.1551589656        4.0772116421       11.9224784205
  C        24.7828472495        5.1070509414       12.6188827859
  C        24.4295195241        6.4530119711       12.3961414115
  C        23.4513969174        6.7327719855       11.4230355844
  C        22.8190023057        5.7032238764       10.7271110995
  C        25.0607453804        7.5510408725       13.1694999396
  C        25.0563568761        7.5451793292       14.5923019132
  C        24.3647360519        6.5483105927       15.3504657170
  C        26.6247983861       17.8596838438        5.7754702172
  C        25.3229554630       17.8986390877        5.0436657774
  C        25.0548285851       18.8989932391        4.0960817848
  C        23.8401318089       18.9170939454        3.4134598501
  C        22.8551683989       17.9382883707        3.6568740302
  C        23.1199051955       16.9585241641        4.6322936468
  C        24.3370153713       16.9348906005        5.3119016207
  C        21.5797978471       17.9246384210        2.8956220906
  C        21.5792273545       17.9056769772        1.4730743555
  C        22.7846419291       17.7825987898        0.7121627820
  C        34.4188129180       17.2183391123        5.9126270189
  C        35.7084142823       17.1535052847        5.1654730193
  C        35.8979376268       16.1964395497        4.1563665679
  C        37.0824995652       16.1721351161        3.4246297280
  C        38.1077969160       17.1051157251        3.6775411737
  C        37.9181449442       18.0430316886        4.7106566111
  C        36.7331423033       18.0713650886        5.4420922386
  C        39.3633662070       17.1080770468        2.8916446186
  C        39.3591669503       17.1216106259        1.4694141680
  C        38.1529295890       17.2513755230        0.7107948665
  C        20.3323343520       17.9254024539        0.7652935200
  C        20.3554672877       17.9272894479        3.5789836407
  C        34.4373854284       17.2378530597       10.1906475100
  C        35.7386561400       17.1391188468       10.9140232591
  C        35.9462373361       16.1594520228       11.8965917234
  C        37.1372825506       16.1308838361       12.6183855395
  C        38.1504782665       17.0799701025       12.3775379956
  C        37.9489433832       18.0321332428       11.3608502843
  C        36.7571614936       18.0662734875       10.6427799323
  C        39.4003993797       17.0965273347       13.1703836571
  C        39.3783858431       17.1149040014       14.5916552560
  C        38.1621066265       17.2449594258       15.3339975020
  C        35.1377117797       26.6435052211       15.2933723653
  C        35.1739942337       26.6567739631       12.4841092922
  C        26.5710590822       17.8267165403       10.3238972052
  C        25.2563322305       17.8734549281       11.0286072317
  C        24.9913679472       18.8783381833       11.9713174802
  C        23.7736062424       18.9028813063       12.6450883483
  C        22.7913042403       17.9227667487       12.3994045515
  C        23.0501874070       16.9432299102       11.4235954189
  C        24.2688701241       16.9162702328       10.7483739490
  C        21.5281119171       17.9033671610       13.1730836285
  C        21.5528076607       17.8931543349       14.5946167343
  C        22.7716639010       17.7764992488       15.3356994684
  C        14.0465369868       17.8288944759       10.2887605456
  C        15.3507835362       17.8857996729       11.0138721269
  C        15.6071175410       18.8880645417       11.9625728552
  C        16.8161097462       18.9084035261       12.6553820778
  C        17.8029265314       17.9293900306       12.4215006515
  C        17.5513318464       16.9514476013       11.4406560768
  C        16.3417843137       16.9264185209       10.7495167447
  C        19.0721222284       17.9117160936       13.1900077095
  C        19.0714082824       17.9077713676       14.6124807975
  C        17.8647812555       17.8084959087       15.3743299958
  C        46.8025851267       17.2173760742       10.1585247193
  C        45.5100183966       17.1497775423       10.9024461123
  C        45.3062951421       16.1693741201       11.8861487514
  C        44.1230066017       16.1430831240       12.6201406955
  C        43.1115193972       17.0970460062       12.3934279846
  C        43.3124584793       18.0570575806       11.3828589702
  C        44.4966795302       18.0871881595       10.6497090500
  C        41.8569489843       17.1013482013       13.1824135376
  C        41.8625274672       17.1038513382       14.6050610778
  C        43.0711350366       17.2006494918       15.3641638362
  C        20.3184652679       17.9178233315       15.3201993887
  C        20.2958777386       17.8923970039       12.5070411306
  C        46.7825991281       17.2313039619        5.8874973030
  C        45.4779323271       17.1237526660        5.1709694436
  C        45.2581444110       16.1223006613        4.2126866611
  C        44.0689900013       16.0915137670        3.4874240073
  C        43.0679464593       17.0590586206        3.7022650914
  C        43.2784183835       18.0309093329        4.6986146206
  C        44.4687815081       18.0679555294        5.4190059105
  C        41.8196832024       17.0774974719        2.9053732371
  C        41.8434077476       17.0903641706        1.4837229643
  C        43.0620563801       17.1912467874        0.7411869121
  C        46.1533903927       26.6371066037        0.7262762302
  C        46.1625057762       26.6560637178        3.5359183687
  C        14.0462322791       17.8312795977        5.7082302200
  C        15.3676153342       17.9040054381        5.0175005638
  C        15.6428067824       18.9181802491        4.0879689585
  C        16.8722263894       18.9536004995        3.4335152798
  C        17.8548211789       17.9739011075        3.6820970928
  C        17.5864463609       16.9887442618        4.6499186041
  C        16.3590960266       16.9528243317        5.3079738116
  C        19.1222849142       17.9472459540        2.9127413895
  C        19.0976420697       17.9246943519        1.4910373615
  C        17.8775564178       17.8160905593        0.7505896660
  C        28.8088433579       14.0898685418       10.3899262397
  C        28.1972530397       12.9140924464       11.0729375394
  C        28.9205316403       12.1690850829       12.0159374513
  C        28.3197374215       11.0954678931       12.6680022917
  C        26.9817160219       10.7421923774       12.4004115650
  C        26.2807021254       11.4657092821       11.4189787129
  C        26.8790416772       12.5400999920       10.7657780656
  C        26.3120359266        9.6639374962       13.1632918720
  C        26.3017497292        9.6913361410       14.5843755494
  C        26.8043604264       10.8058417233       15.3279845649
  C        32.1775409911       21.2394878397       10.1488295056
  C        32.7707143792       22.4067675078       10.8649378858
  C        32.0238879035       23.0816189260       11.8429292257
  C        32.5944887463       24.1212468361       12.5706448634
  C        33.9276900869       24.5135245142       12.3420623351
  C        34.6562915837       23.8579079845       11.3315633111
  C        34.0881226217       22.8132535302       10.6050836835
  C        34.5570907430       25.5877858914       13.1433117913
  C        34.5464785795       25.5595708307       14.5651437250
  C        34.0345636430       24.4459709476       15.3036103883
  C        25.6948278517        8.6130786312       15.3050733879
  C        25.6744589701        8.6129858211       12.4915368256
  C        32.1330522339       21.2322824343        5.9214735334
  C        32.7030593816       22.3854505947        5.1645449075
  C        31.9617023626       23.0239523839        4.1587326099
  C        32.5310378241       24.0535629171        3.4116153937
  C        33.8536594888       24.4743343260        3.6529251723
  C        34.5773411822       23.8474749742        4.6857316983
  C        34.0144126521       22.8124905329        5.4263280835
  C        34.4883189486       25.5559278587        2.8643743087
  C        34.5094008846       25.5441967885        1.4424396719
  C        34.0153865852       24.4388936122        0.6804563809
  C        40.6056345673       17.0905829453        0.7601336030
  C        40.5882904137       17.1018209582        3.5702769226
  C        28.7465733597       14.0711645689        5.8160247026
  C        28.1375092943       12.9277783130        5.0745559654
  C        28.8669185185       12.2501484181        4.0857740894
  C        28.2895606124       11.1911029826        3.3894108808
  C        26.9662160699       10.7843781164        3.6542851494
  C        26.2534829555       11.4524858161        4.6678780505
  C        26.8293562176       12.5111149827        5.3672529030
  C        26.3256744258        9.6921841203        2.8828937552
  C        26.3095402236        9.7063650107        1.4607640124
  C        26.8049113400       10.8146571711        0.7040151603
  C        18.1355411195        3.1809960797       10.3171172596
  C        17.4062937765        4.2783179049       11.0158200172
  C        16.3902423690        4.0000064609       11.9429663218
  C        15.7425212661        5.0400172198       12.6064398047
  C        16.0948247366        6.3836831134       12.3671042101
  C        17.0846521921        6.6531803167       11.4038098452
  C        17.7337347642        5.6157977393       10.7387836462
  C        15.4704211044        7.4913847281       13.1301272147
  C        15.4855936446        7.4906994620       14.5518433079
  C        16.1871290117        6.4970636543       15.3050028181
  C        42.9457663724       31.8595859951       10.0728978287
  C        43.6461188521       30.7718394662       10.8169783665
  C        44.5917259348       31.0931573992       11.8029541537
  C        45.1974356559       30.0876115632       12.5506453776
  C        44.8709771605       28.7345660047       12.3357821000
  C        43.9450493479       28.4202170505       11.3226784592
  C        43.3362353305       29.4253763619       10.5746384027
  C        45.4886461964       27.6552581041       13.1389219480
  C        45.4927635327       27.6807671773       14.5606208448
  C        44.8055874091       28.6887413825       15.3072589600
  C        14.8565262106        8.5631405224       15.2641966485
  C        14.8751647338        8.5631485766       12.4515291344
  C        42.9464121927       31.9616468564        5.8089972580
  C        43.6916296779       30.8854107696        5.0954237906
  C        44.6564212744       31.1912746750        4.1233336533
  C        45.2779592570       30.1716701365        3.4056167124
  C        44.9539613560       28.8213935411        3.6430908926
  C        44.0201917259       28.5237442618        4.6535891253
  C        43.3919319672       29.5405479637        5.3657395829
  C        45.5630603621       27.7239689751        2.8578701201
  C        45.5333096444       27.7171996362        1.4365711797
  C        44.8268759199       28.7073708035        0.6836497865
  C        35.1204071242       26.6346801086        0.7384365687
  C        35.0976457975       26.6157118016        3.5476092461
  C        18.1486734557        3.2470259215        5.7065956457
  C        17.4301474242        4.3439323314        4.9972462098
  C        16.4145481676        4.0527015506        4.0741027106
  C        15.7662821418        5.0833483970        3.3986752490
  C        16.1213503937        6.4285246207        3.6210708179
  C        17.1132118102        6.7118990728        4.5778182770
  C        17.7608415121        5.6829509843        5.2576032766
  C        15.4907890187        7.5242255002        2.8486413574
  C        15.4965766841        7.5075932628        1.4275048049
  C        16.1933404369        6.5058861049        0.6808161607
  H        10.6724662728       12.4658356649        3.9044284799
  H        11.6947956457       10.5510828618        2.6625910797
  H        15.3916595070       11.1686238822        4.7723858658
  H        14.3512164313       13.0713297024        6.0175511834
  H        13.3762439474       11.6312752253        1.2012776149
  H        50.3227051423       22.7478878726        3.9863774652
  H        49.3196328065       24.6223730942        2.6804509276
  H        45.6427365352       24.1619501145        4.8645093772
  H        46.6635411523       22.2909770584        6.1727423248
  H        47.6301626950       23.5759018702        1.2461266596
  H        14.8724901885        8.5884259274        4.6085531454
  H        50.2870007152       22.7022828047       12.0605877093
  H        49.2691027335       24.5751218544       13.3606334739
  H        45.6109952886       24.1100303084       11.1452770404
  H        46.6529911839       22.2547164535        9.8309474281
  H        47.6081226017       23.5518862884       14.7968573820
  H        40.6373605323       17.0734833576       11.4168924897
  H        48.6871340769       14.0951543635        7.7999990748
  H        10.6814746092       12.4668681460       12.0935947822
  H        11.6898254542       10.5249856594       13.2972584724
  H        15.3934512894       11.1587819769       11.2052283355
  H        14.3649845110       13.0871372270        9.9899982409
  H        13.3759197225       11.6222505651       14.7531301001
  H        47.9301672386       14.2186702229        9.7109157943
  H        47.7799768368       14.3741255952        6.4953984136
  H        49.0833651003       18.5524103545       10.8670996692
  H        10.4161636526       14.1344197197        7.9987404008
  H        24.4852246852        3.0277246820        3.9158093344
  H        25.6304161475        4.8845670915        2.6918292244
  H        23.2647556581        7.7554180012        4.8503716742
  H        22.1373876368        5.8888708510        6.0758458330
  H        23.8203277800        5.7914484216        1.2690529994
  H        36.3725096522       32.1918240964        3.9711456029
  H        35.2414634216       30.3703189949        2.6929844818
  H        37.4995148706       27.4409088154        4.8885741680
  H        38.6112180569       29.2752391710        6.1753713656
  H        37.0140870036       29.4527712481        1.2769636599
  H        25.7573506144        8.6097523111        4.6494598637
  H        36.4552098190       32.2416035529       12.1115182188
  H        35.3423136161       30.4244700833       13.4066955472
  H        37.5278758920       27.4872095786       11.1474664907
  H        38.6154632117       29.3161063942        9.8396007853
  H        37.0393680347       29.4696772950       14.8287402561
  H        46.1094068238       26.5877508602       11.3855851007
  H        44.6682226601       35.1162125427        7.8139835729
  H        24.4321928077        3.0388460022       12.0898648502
  H        25.5630709916        4.8780873067       13.3416348829
  H        23.1673157276        7.7674648618       11.2422137481
  H        22.0480767904        5.9162631732        9.9901848263
  H        23.7925398110        5.7921539262       14.8208034807
  H        44.9536672341       34.3902549694        9.6951086775
  H        44.9014439734       34.2066326896        6.4907918128
  H        40.6657508243       33.2091243454       10.8531019401
  H        23.1504299042        1.9581011194        8.0051845125
  H        25.8068312348       19.6622403667        3.9110441611
  H        23.6381197017       19.6997392271        2.6852709411
  H        22.3724554174       16.1924681415        4.8285291697
  H        24.5510498779       16.1650271426        6.0495340893
  H        23.7256188358       17.6614536593        1.2410586632
  H        35.0994636984       15.4868903597        3.9515696565
  H        37.2301933736       15.4200920237        2.6526740950
  H        38.6994602384       18.7733292592        4.9108188088
  H        36.5717443108       18.8108206911        6.2231165682
  H        37.2151578362       17.3902539325        1.2414236994
  H        20.3631673432       17.9656548866        4.6669210820
  H        35.1569805442       15.4367994109       12.0911272658
  H        37.2970604347       15.3678907743       13.3771395145
  H        38.7236182778       18.7715051999       11.1683331437
  H        36.5818746675       18.8203854896        9.8793264464
  H        37.2311801686       17.3759454911       14.7896622464
  H        35.1475350416       26.6824811668       11.3963713359
  H        28.5053309947       21.0818170929        7.9860565627
  H        25.7521442509       19.6324563218       12.1590346892
  H        23.5681701825       19.6858847591       13.3718185806
  H        22.3000460821       16.1796559169       11.2281673789
  H        24.4849486078       16.1476782504       10.0101511699
  H        23.7027110447       17.6509453069       14.7909440221
  H        29.0136879826       21.7171996986        9.7549990414
  H        29.1567271127       21.7497864511        6.6292734571
  H        32.0742479299       18.5492947896       11.0042540968
  H        27.4079246809       19.0789719897        8.0847267142
  H        14.8484782046       19.6467006204       12.1416589268
  H        17.0112818613       19.6918195366       13.3845621963
  H        18.3028412037       16.1877086165       11.2511679071
  H        16.1359617383       16.1580560628       10.0080847023
  H        16.9219695163       17.6935000537       14.8474661044
  H        46.0927188058       15.4409261552       12.0692772616
  H        43.9679628333       15.3745384251       13.3742272788
  H        42.5408361390       18.8026033300       11.2021762482
  H        44.6661552551       18.8433431547        9.8866174886
  H        44.0129139862       17.3139369591       14.8348274790
  H        20.2892456074       17.9228802441       11.4189291567
  H        46.0350967618       15.3816479612        4.0371930045
  H        43.9035552057       15.3135359866        2.7452334967
  H        42.5120764965       18.7835184868        4.8722045912
  H        44.6503895742       18.8377083710        6.1651317812
  H        43.9970408048       17.2958708631        1.2840054757
  H        46.1993673887       26.6826956313        4.6233600212
  H        52.7412699800       21.0627349425        8.1947252989
  H        14.8834467521       19.6727899918        3.8949503447
  H        17.0841264544       19.7433394082        2.7159179870
  H        18.3358316099       16.2256742105        4.8501587324
  H        16.1373205667       16.1790157395        6.0388934402
  H        16.9443200051       17.7068455017        1.2948462982
  H        52.3229030726       21.6733851977        6.2940580367
  H        52.0135307862       21.7023359009        9.4957081505
  H        49.0674532016       18.6076966406        5.2039719375
  H        13.2475643661       19.0161770673        7.9771299755
  H        29.9509073753       12.4469230422       12.2253834642
  H        28.8813797420       10.5182795210       13.3992999867
  H        25.2470152684       11.2022610316       11.2045407211
  H        26.3348181297       13.1208758794       10.0251464062
  H        27.1637341399       11.6759963740       14.7867847010
  H        31.0005379473       22.7647162742       12.0288106028
  H        32.0104181965       24.6433992024       13.3253011111
  H        35.6878260332       24.1520766749       11.1489068262
  H        34.6564327545       22.2819134372        9.8451104447
  H        33.6784474792       23.5769351499       14.7578624823
  H        25.7024025525        8.5930730982       11.4034909130
  H        30.9448138518       22.6901522508        3.9648907898
  H        31.9495511317       24.5480979272        2.6366243962
  H        35.6016909242       24.1602733511        4.8771452445
  H        34.5798283169       22.3056661246        6.2046364177
  H        33.6444823466       23.5643067953        1.2076241910
  H        40.5818738072       17.0641463328        4.6579813455
  H        32.5053052534       14.1520720722        8.2592673542
  H        29.8866817562       12.5673411217        3.8802337196
  H        28.8642173583       10.6612529893        2.6328905200
  H        25.2289557476       11.1528361289        4.8787855288
  H        26.2755094908       13.0412714906        6.1383653687
  H        27.1631872852       11.6923103357        1.2340899910
  H        33.3023363752       14.2206631460        6.4524676289
  H        33.4055465288       14.4137742896        9.5985461999
  H        32.1280298064       18.5526162774        5.1798721135
  H        30.2077242347       14.1915951188        8.0746426944
  H        16.1179174941        2.9635190803       12.1290729139
  H        14.9528110474        4.8206723346       13.3218207503
  H        17.3675295980        7.6860064097       11.2110907484
  H        18.5161358106        5.8183912848       10.0113073326
  H        16.7537259269        5.7397658282       14.7714829582
  H        44.8279963049       32.1402552326       11.9770911962
  H        45.9373526210       30.3413848649       13.3065352965
  H        43.6822888383       27.3781570147       11.1526138242
  H        42.5995201775       29.1901007827        9.8100446944
  H        44.2302029791       29.4364760224       14.7689383067
  H        14.8515663910        8.5464079093       11.3633085017
  H        44.9001150994       32.2339518433        3.9320477070
  H        46.0250167047       30.4128938778        2.6525291085
  H        43.7629890387       27.4840420606        4.8449652834
  H        42.6452084769       29.3178263432        6.1239856076
  H        44.2683479951       29.4702179276        1.2182753230
  H        35.0524278254       26.6298888304        4.6349255778
  H        36.6051997887       35.1340555576        8.1806629376
  H        16.1431954661        3.0131421717        3.9046801878
  H        14.9736919493        4.8565562104        2.6888679703
  H        17.3971913316        7.7473123625        4.7542839111
  H        18.5441653903        5.8933450817        5.9819106092
  H        16.7647884502        5.7556753337        1.2192888877
  H        36.2788815307       34.4823056471        6.2733035713
  H        36.3813284715       34.2089844054        9.4996387636
  H        40.5799292150       33.2027381734        5.1536873871
  H        17.4708502595        1.9473592607        7.9741764504
  H        28.9769980479       19.2874294624       12.4983289876
  H        28.7404671729       19.3186647316        3.8426061272
  H        31.5972118235       15.7684603340        3.4553042709
  H        31.2439045737       15.6445858712       12.5774385543
  H        28.1827035020       17.7249328579       14.8969860556
  H        29.9188638541       15.6901637024       15.1603979154
  H        31.8176027797       19.3392728976        1.2925936235
  H        33.3467518405       16.8963662911        1.2917483516
  H        28.6959756103       15.9348358242        1.8951518223
  H        33.4230233116       18.9805428991       16.0350752708
  H        18.8536663070        0.8688785872       12.3354444429
  H        40.5279899428       35.2287898369        3.9519710364
  H        42.3240397138       34.4185824058        3.5903853275
  H        22.0875574642        0.6924741703       12.3513100730
  H        11.5968724662       18.7127512177       12.3824275566
  H        52.2651713421       18.4313479010        3.6774238867
  H        49.2554862567       16.4767194085        3.5841168192
  H        10.1503529157       15.7982323724       12.2924490993
  H        50.8504083188       17.6925468291        3.9541781326
  H        10.0460833018       17.3946809595       12.0518823949
  H        20.2150513040        0.0022290989       12.0419312120
  H        39.1838883664       36.1245202457        3.6863347518
 Ni        29.8012184910       17.3509137100        3.2495739490
 Ni        31.6285753882       17.3237256884       -0.2500543738
 Ni        29.9684635271       18.9192819206       -0.0779677957
 Ni        30.1013805291       17.4748021745       13.4015031294
  O        10.6498679623       14.3651836178        5.4858728331
  O        12.6131404695       14.6575612618        6.5838798987
  O        49.1476031606       16.8459144482        7.9896624343
  O        50.3502561378       20.9356304917        5.6480444868
  O        48.3485392866       20.5932210493        6.6659597063
  O        11.0515859542       17.0538505304        6.5006857515
  O        50.3209509497       20.8815767945       10.4068482356
  O        48.3466907087       20.5866123514        9.3271037595
  O        49.5435560591       18.2483297629       10.0681371646
  O        12.3589882285       18.6246175314        7.9996498306
  O        48.6931601488       14.1487308345        6.7512618946
  O         8.2098499767       14.2105314043        9.3225576821
  O        10.7353322147       14.5068514379       10.6642724543
  O        12.5718054798       14.5828581567        9.3284971171
  O        22.8447133115        2.0432311650        5.4869837680
  O        21.6063402974        3.5928017768        6.5888456405
  O        42.0582197572       34.1374380703        7.9788905443
  O        37.9817468773       33.1386707412        5.5726680807
  O        39.2175940655       31.5759828807        6.6662716369
  O        20.3085151533        1.0397741492        6.5020703806
  O        38.0246398696       33.1856541962       10.4152471686
  O        39.2190583946       31.5836349408        9.3266079519
  O        40.6523001095       33.7693803900       10.0601720634
  O        18.2555517757        1.3762176894        7.9967596459
  O        44.6222364496       35.1005166371        6.7587670064
  O        24.2054017682       -0.0000242298        9.3207631732
  O        22.7528811691        2.0574610407       10.5836144044
  O        21.6243940947        3.5958767047        9.3423618537
  O        27.5003748448       18.7571814621        5.4973404459
  O        26.7642867620       16.9392510449        6.6517481436
  O        30.6634510248       19.4093370903        8.0789573626
  O        33.5399662419       16.3277394961        5.6574011089
  O        34.2719414932       18.1763920623        6.7446315239
  O        29.5718596857       17.0726131313        6.5746377432
  O        33.5511972324       16.3397806459       10.4185421791
  O        34.2992567973       18.2381242084        9.4085908040
  O        31.6483824359       18.3162949102       10.1620341773
  O        30.3185964724       15.1565277040        8.0877162670
  O        28.5521868911       21.0372465726        6.9077986242
  O        28.5150102104       20.9551711108        9.4132733260
  O        27.4582661724       18.6797004722       10.6589713362
  O        26.6950788290       16.9296894329        9.4122081816
  O        13.1485955838       18.6929997562       10.5873645962
  O        13.9192719395       16.9162667188        9.4049307473
  O        50.5959108382       19.3500889145        8.0202716445
  O        47.6822310668       16.3272642221       10.4175860792
  O        46.9499532130       18.1755851535        9.3257014330
  O        11.0696822495       17.0155919276        9.4895312484
  O        47.6738523623       16.3360206677        5.6523883060
  O        46.9245938619       18.2359036805        6.6630847939
  O        49.5684821348       18.3176431624        5.9822601194
  O        10.3185702074       15.1002443479        7.9971198268
  O        52.6707418648       21.0278752123        9.2418143600
  O        12.1468349718       20.8911518109        6.6732365474
  O        13.1087539740       18.6134937656        5.3254345673
  O        13.9574291706       16.9870486828        6.6653265777
  O        29.9939513783       14.4418445171       10.7295516339
  O        28.0895800598       14.6546345562        9.4945953414
  O        32.0761487947       16.8685525436        8.0805874067
  O        30.9631125741       20.9489924376       10.4125133340
  O        32.9450762258       20.6020779001        9.3415257758
  O        29.5624918608       17.0782638991        9.5747808722
  O        30.8920658806       20.9569693384        5.7466204203
  O        32.9447511997       20.5849776225        6.6683974491
  O        31.6452997900       18.3078347739        5.9860892208
  O        28.2930378758       18.6791328592        8.0788933213
  O        32.4895047358       14.2154972321        9.3315489152
  O        32.4036210411       14.2195478325        6.8221743564
  O        29.9212030170       14.4412240291        5.4924951970
  O        28.0394079618       14.5909216178        6.7519788472
  O        17.8892291152        1.9666878329       10.6628284928
  O        18.9562597073        3.5271746714        9.4079390032
  O        39.1686223479       34.1388258690        7.9972086258
  O        43.2802424947       33.0589201413       10.3317154518
  O        42.0345312834       31.5064024239        9.2416055394
  O        20.3177217656        1.0368695681        9.4799965145
  O        43.2761091555       33.1825213096        5.5748508074
  O        42.0052689097       31.5840740618        6.5829562610
  O        40.5791010888       33.7751450626        5.9360024856
  O        22.3673968596        1.3847484368        7.9978286962
  O        36.6727947785       35.0997674752        9.2333260150
  O        16.4455396393        0.0643633573        6.6683310313
  O        17.9364782325        2.0434572229        5.3263540602
  O        18.9191205301        3.5931531086        6.6659043133
  O        29.6959168151       19.1855268326        4.0111295845
  O        29.7721901823       18.9000034304       12.0840039426
  O        31.2251493979       16.4150402066        4.0847853005
  O        31.1820357042       16.4833228147       12.0819151390
  O        32.9869264427       15.9679841227        1.3338535301
  O        29.4851658714       15.7499595856        1.3275957965
  O        30.6340218877       16.1282095777       14.6578718073
  O        32.8957018082       18.4564486927       16.6599008757
  O        30.8817029128       19.7892278567        1.3981837819
  O        28.8201128297       18.3845263213       14.5668713051
  O        39.4567673830       35.2438453799        4.0019743841
  O        19.1415890501        0.0045063016       11.9905069499
  O        41.9693423132       35.1722431358        4.0870931856
  O        21.6913604332       -0.0692385041       11.8959484746
  O        51.3652584852       18.6143395267        4.0054465156
  O        10.7510559610       18.7471139330       11.9049027911
  O        50.0796971495       16.4127781871        4.0917518856
  O         9.5243700544       16.4831100722       11.9911500932
 Zr         9.2973202766       16.0528601738        6.1823524864
 Zr        49.8368532213       16.0067981759        9.7464396522
 Zr        22.0733595564        0.0303584952        6.1888741840
 Zr        42.4608855814       35.1537921786        9.8008674981
 Zr        29.6081520475       19.1284273690        6.3130516736
 Zr        29.5777027460       19.1657078409        9.8946013714
 Zr        11.0382217169       19.0520731093        9.8277464963
 Zr        11.0442921669       19.1548486261        6.2509351816
 Zr        31.3241455390       16.1070897437        9.9018147866
 Zr        31.3773128775       16.0176540187        6.2866729644
 Zr        18.6012852656       -0.0011813998        9.7633672661
 Zr        18.5065614688       -0.0073741347        6.2137627486
 Zr        12.3027225749       16.3234077368        7.9902321891
 Zr        48.6164324003       18.8331441193        8.0100787016
 Zr        20.3157293471        2.4739312684        7.9902544218
 Zr        40.6433287029       32.6873496985        7.9781343928
 Zr        28.3409596908       16.3384075590        8.0753470348
 Zr        32.6244790903       18.8439309909        8.0603450436
  H        28.2971147999       17.0410222003        3.1619993088
  H        29.6616355379       16.6313408928        0.9116667488
  H        33.6254070496       15.4070394701        0.8663753066
  H        30.5330933524       19.6504238817        2.3173389015
