     569
 i =       94, E =     -4729.4578155468
  C        11.8585244799       14.0537774791        5.7415830177
  C        12.4560381412       12.8905590914        5.0231926492
  C        11.7044147521       12.1720283372        4.0812392317
  C        12.2806461051       11.1097205246        3.3888647291
  C        13.6210116553       10.7394726461        3.6169439963
  C        14.3540880590       11.4426730509        4.5907286590
  C        13.7813499552       12.5077825971        5.2821977748
  C        14.2605242708        9.6487602846        2.8435814686
  C        14.2561899699        9.6567474175        1.4218631270
  C        13.7433021901       10.7589957417        0.6679392735
  C        49.1265820573       21.2333471529        5.8798141794
  C        48.5497962137       22.4012129490        5.1527111957
  C        49.2997070568       23.0683330992        4.1714770047
  C        48.7327375914       24.1073780614        3.4382278373
  C        47.4023033203       24.5092859806        3.6671050823
  C        46.6714459655       23.8605189338        4.6807702203
  C        47.2338975198       22.8156086863        5.4100919340
  C        46.7720920547       25.5869127125        2.8698412477
  C        46.7613836258       25.5574836122        1.4479917703
  C        47.2610771905       24.4423463253        0.7045482619
  C        14.8600364292        8.5703106081        0.7086463773
  C        14.8909568364        8.5966151363        3.5202449075
  C        49.1131242375       21.2034529246       10.1452816556
  C        48.5277717916       22.3647515769       10.8725136223
  C        49.2668405801       23.0251766121       11.8657494115
  C        48.6904781168       24.0596860348       12.5972090772
  C        47.3602300606       24.4568623825       12.3586045819
  C        46.6400082254       23.8121890143       11.3347835274
  C        47.2135448312       22.7762544559       10.6030515656
  C        46.7217873235       25.5317891125       13.1495762260
  C        46.7336935270       25.5283072237       14.5713585209
  C        47.2488424445       24.4290428780       15.3277291719
  C        40.6217558281       17.1082797399       15.3141380468
  C        40.6355633227       17.1412318853       12.5028228143
  C        11.8827229331       14.0866262097       10.2852679266
  C        12.4720224903       12.9105359706       10.9896455197
  C        11.7144565758       12.1775766653       11.9158433020
  C        12.2808422735       11.0950334084       12.5843638735
  C        13.6194924365       10.7209181830       12.3523687278
  C        14.3575225652       11.4362607674       11.3914618193
  C        13.7922917046       12.5175557238       10.7187534817
  C        14.2530412780        9.6240976036       13.1227868490
  C        14.2522312029        9.6442657843       14.5446417634
  C        13.7426968250       10.7533981544       15.2916782415
  C        22.5111304017        3.2435017715        5.7516902530
  C        23.2262417765        4.3474074835        5.0478265929
  C        24.2223091101        4.0630039478        4.1019785035
  C        24.8521265852        5.0991942857        3.4170869279
  C        24.5016685185        6.4424491876        3.6579828338
  C        23.5323143513        6.7184893429        4.6395848291
  C        22.8980693298        5.6838909484        5.3229549984
  C        25.1127019043        7.5466531282        2.8823639529
  C        25.0886757408        7.5411625116        1.4602396736
  C        24.3859464469        6.5439212321        0.7129696355
  C        38.2965951034       31.9270699021        5.8523911560
  C        37.5541438373       30.8378669135        5.1551746715
  C        36.5918299424       31.1409772076        4.1788261959
  C        35.9639237060       30.1207649254        3.4697244113
  C        36.2808181027       28.7689062812        3.7122037771
  C        37.2104402263       28.4740396850        4.7283158832
  C        37.8428583288       29.4930344193        5.4367148713
  C        35.6771221061       27.6788095480        2.9121394642
  C        35.7104694463       27.7004671239        1.4870290894
  C        36.4179083077       28.7030421010        0.7561191335
  C        25.7157193095        8.6103830735        0.7421281515
  C        25.7125348207        8.6187636024        3.5539908425
  C        38.3295559440       31.9606504627       10.1600478538
  C        37.6124380230       30.8897729771       10.9071153461
  C        36.6888549141       31.1991652450       11.9184239768
  C        36.0814697849       30.1824770139       12.6523870853
  C        36.3796805024       28.8274371443       12.3998935692
  C        37.2821024939       28.5288566373       11.3591114186
  C        37.8927209817       29.5418672290       10.6271785020
  C        35.7692092758       27.7289276389       13.1815710510
  C        35.7576327878       27.7259206703       14.6068533950
  C        36.4391713209       28.7164332136       15.3773911346
  C        46.1358056905       26.6210439510       15.2814720247
  C        46.0875527813       26.5799803662       12.4735490051
  C        22.4624948970        3.2549698094       10.2556962968
  C        23.1624573662        4.3629570938       10.9756503935
  C        24.1704050850        4.0740408100       11.9091931234
  C        24.8043150319        5.1022216371       12.6027371143
  C        24.4500864340        6.4485534931       12.3849043616
  C        23.4649651062        6.7309838161       11.4198885272
  C        22.8267342372        5.7028704604       10.7266204175
  C        25.0848538755        7.5445416243       13.1589555600
  C        25.0751107979        7.5394848942       14.5819574175
  C        24.3776025375        6.5441308169       15.3358687947
  C        26.5908216335       17.8395818829        5.7676452721
  C        25.3049561391       17.9258998784        5.0475470139
  C        25.0732773369       18.9037378307        4.0618160983
  C        23.8636920197       18.9379828217        3.3752426168
  C        22.8378606628       18.0071149948        3.6528812103
  C        23.0616091572       17.0640406234        4.6775117456
  C        24.2740060898       17.0158521531        5.3552570044
  C        21.5722754813       17.9923940748        2.8883221519
  C        21.5743219151       17.9733696517        1.4630152817
  C        22.7769967267       17.8373475978        0.7042714063
  C        34.4439170366       17.1901118902        5.9224169214
  C        35.7322394558       17.1441345433        5.1842760164
  C        35.9264337136       16.1949295058        4.1665013343
  C        37.1044123715       16.1866314954        3.4273973147
  C        38.1262858706       17.1229531149        3.6849658736
  C        37.9360775629       18.0483523043        4.7307339693
  C        36.7536878169       18.0657722162        5.4655900909
  C        39.3762491623       17.1348130429        2.8952888355
  C        39.3684347942       17.1395824418        1.4710056368
  C        38.1628965240       17.2671211301        0.7150325148
  C        20.3276827594       17.9872334546        0.7546472773
  C        20.3451846918       17.9776004161        3.5696383399
  C        34.4577893066       17.1872150120       10.1869563607
  C        35.7508531776       17.1184992129       10.9071726348
  C        35.9564928154       16.1612582284       11.9141341200
  C        37.1439333035       16.1521318713       12.6383464274
  C        38.1581254310       17.0958200591       12.3767779087
  C        37.9580080089       18.0239192818       11.3358028661
  C        36.7681052053       18.0422870513       10.6155440676
  C        39.4048857653       17.1236440606       13.1693744647
  C        39.3829927636       17.1347695771       14.5928795637
  C        38.1695934026       17.2632686077       15.3367005219
  C        35.1208555876       26.6456285761       15.3055811451
  C        35.1946188737       26.6520099913       12.4941497373
  C        26.5558179732       17.8465669709       10.3103186214
  C        25.2413704359       17.9097748603       10.9971187033
  C        25.0007493633       18.8913614246       11.9729078852
  C        23.7878508246       18.9186299907       12.6522072370
  C        22.7828199101       17.9662658380       12.3825237164
  C        23.0165191693       17.0168669322       11.3688724653
  C        24.2304973236       16.9845321769       10.6880647607
  C        21.5257469249       17.9448876488       13.1600365270
  C        21.5508522633       17.9448676606       14.5839604691
  C        22.7657508190       17.8234892243       15.3264144101
  C        14.0458095650       17.8315451234       10.2855095731
  C        15.3506930276       17.8960086676       11.0055515903
  C        15.6019162145       18.9006655627       11.9531984185
  C        16.8108457230       18.9281388512       12.6442927222
  C        17.8029919574       17.9547068007       12.4088580422
  C        17.5568386906       16.9754817588       11.4276236878
  C        16.3468043056       16.9429063533       10.7385158976
  C        19.0702707010       17.9442703546       13.1765297654
  C        19.0686473648       17.9519029004       14.6009469715
  C        17.8636833373       17.8499798871       15.3608465003
  C        46.8028978715       17.2172260424       10.1577789120
  C        45.5110667063       17.1515435158       10.8989911935
  C        45.3057054716       16.1755125772       11.8869207900
  C        44.1227143056       16.1551889168       12.6206047594
  C        43.1127965481       17.1102912741       12.3894009084
  C        43.3150079684       18.0642482362       11.3730032752
  C        44.4989522572       18.0889271940       10.6404290684
  C        41.8606390475       17.1222291885       13.1788028240
  C        41.8678830904       17.1186802782       14.6029545582
  C        43.0763746100       17.2120145686       15.3593151481
  C        20.3156291573       17.9729984354       15.3091388295
  C        20.2930839448       17.9212504221       12.4948731352
  C        46.7847716933       17.2314516736        5.8880372100
  C        45.4829128189       17.1266737527        5.1722402629
  C        45.2662009017       16.1338894705        4.2040668106
  C        44.0789588250       16.1098098583        3.4769751872
  C        43.0767728715       17.0747296789        3.7001885372
  C        43.2840115427       18.0361889027        4.7077077717
  C        44.4725590114       18.0673139146        5.4295195466
  C        41.8310752252       17.1001472126        2.9042925375
  C        41.8530237333       17.1058766673        1.4810565208
  C        43.0692860138       17.2031618496        0.7377170477
  C        46.1535421674       26.6374778023        0.7262441553
  C        46.1618594090       26.6558709937        3.5359210548
  C        14.0452569895       17.8336709715        5.7086094893
  C        15.3651687852       17.9151788010        5.0168148241
  C        15.6285637725       18.9312308363        4.0855049110
  C        16.8549670678       18.9775231988        3.4268248614
  C        17.8477702984       18.0076125958        3.6735176103
  C        17.5906715424       17.0204167219        4.6428538147
  C        16.3658561919       16.9733076832        5.3049555649
  C        19.1142986714       17.9931726422        2.9037713746
  C        19.0914741491       17.9774344380        1.4791631572
  C        17.8750570260       17.8613016959        0.7391295364
  C        28.8183155168       14.0639662331       10.3537623486
  C        28.2190643918       12.8904489495       11.0383883884
  C        28.9378576663       12.1778015872       12.0110729172
  C        28.3409185024       11.1098144493       12.6751689606
  C        27.0127021639       10.7288223774       12.3918200201
  C        26.3190946596       11.4205939705       11.3814455561
  C        26.9109703578       12.4903365517       10.7168807365
  C        26.3427662463        9.6541259012       13.1578838157
  C        26.3262259661        9.6830119059       14.5793670494
  C        26.8222464249       10.7979976175       15.3259531954
  C        32.1964290402       21.2418566957       10.1457607084
  C        32.7895101883       22.3996680026       10.8641623105
  C        32.0464949143       23.0659278302       11.8529365688
  C        32.6162077534       24.1054441144       12.5794095683
  C        33.9454183826       24.5104611541       12.3430637707
  C        34.6687950335       23.8632509749       11.3218075979
  C        34.1027858911       22.8177104468       10.5955816119
  C        34.5702740476       25.5838330865       13.1469849312
  C        34.5433055947       25.5576004100       14.5713593462
  C        34.0393259533       24.4399573602       15.3041792967
  C        25.7134846239        8.6057768775       15.2972075713
  C        25.7044992298        8.6040074491       12.4839265757
  C        32.0911101063       21.1645251555        5.8366642808
  C        32.6492447772       22.3276054024        5.1051888309
  C        31.9301952259       22.9696345581        4.0813968617
  C        32.5048556638       24.0148322656        3.3637117110
  C        33.8133970768       24.4614578677        3.6487771005
  C        34.5072978507       23.8409657751        4.7085635583
  C        33.9416591512       22.7880042625        5.4182382173
  C        34.4575709396       25.5444685203        2.8757457162
  C        34.4837659083       25.5391533624        1.4500621139
  C        34.0100929153       24.4319122449        0.6826096875
  C        40.6138275942       17.1061089710        0.7597128840
  C        40.6019504053       17.1357604466        3.5711054110
  C        28.7474387188       14.0503931886        5.8061760815
  C        28.1419935744       12.9056643477        5.0796825550
  C        28.8694662605       12.2363497486        4.0821084991
  C        28.2917104209       11.1797912445        3.3846976672
  C        26.9704929992       10.7669959150        3.6549801503
  C        26.2629080774       11.4232088735        4.6805956229
  C        26.8380172727       12.4796991334        5.3822006800
  C        26.3281649387        9.6812906245        2.8786692210
  C        26.3190023517        9.6975435065        1.4560951301
  C        26.8158596750       10.8066485846        0.7022490417
  C        18.1352045856        3.1804983019       10.3170294185
  C        17.4054749171        4.2777479755       11.0154592120
  C        16.3910886373        3.9991195416       11.9443425030
  C        15.7431434149        5.0389338796       12.6079002837
  C        16.0934634262        6.3828649165       12.3670103788
  C        17.0812718751        6.6525811947       11.4016544306
  C        17.7305660420        5.6154058082       10.7365380398
  C        15.4692572540        7.4905455945       13.1301198727
  C        15.4849737355        7.4900906324       14.5518418598
  C        16.1867086203        6.4966379321       15.3050690656
  C        42.9457747797       31.8592186899       10.0728143479
  C        43.6460837481       30.7717811912       10.8167416191
  C        44.5913352392       31.0931109458       11.8031274110
  C        45.1969789402       30.0875776613       12.5507734384
  C        44.8709479489       28.7344284793       12.3356130285
  C        43.9453934123       28.4201399368       11.3221048201
  C        43.3365035710       29.4252502456       10.5741359794
  C        45.4885322730       27.6552198724       13.1387784738
  C        45.4929287091       27.6810690059       14.5605369559
  C        44.8055731007       28.6888611041       15.3071162461
  C        14.8561950319        8.5627137630       15.2641949921
  C        14.8737745106        8.5622563728       12.4515546957
  C        42.9463812983       31.9612306398        5.8090824298
  C        43.6915881082       30.8853713591        5.0956831162
  C        44.6556639388       31.1913070193        4.1228150904
  C        45.2770236941       30.1717480431        3.4050155974
  C        44.9538444708       28.8213245633        3.6431466491
  C        44.0208643478       28.5236965034        4.6544455146
  C        43.3926277699       29.5404155453        5.3666466451
  C        45.5628141906       27.7240230694        2.8578981908
  C        45.5333840753       27.7175493115        1.4365180006
  C        44.8268240869       28.7075035241        0.6835678789
  C        35.0935840899       26.6346364334        0.7519071475
  C        35.0729242765       26.5991297884        3.5649016291
  C        18.1484400307        3.2466290057        5.7067572285
  C        17.4294433569        4.3435359143        4.9977406543
  C        16.4152213227        4.0520942149        4.0731563722
  C        15.7667817725        5.0826236207        3.3977163681
  C        16.1203086807        6.4280256835        3.6212902785
  C        17.1104890874        6.7115307228        4.5797786683
  C        17.7582705718        5.6827187551        5.2595979166
  C        15.4899602618        7.5237056235        2.8487383020
  C        15.4961325900        7.5071593746        1.4275937722
  C        16.1929821409        6.5055263135        0.6808839917
  H        10.6724420871       12.4666293968        3.9040309732
  H        11.6943697991       10.5515863185        2.6620474514
  H        15.3909784815       11.1677026680        4.7726821529
  H        14.3506289233       13.0709087400        6.0178582796
  H        13.3764105846       11.6311704868        1.2012621897
  H        50.3223002550       22.7480356851        3.9865753369
  H        49.3190253405       24.6223636974        2.6803176710
  H        45.6419365246       24.1612244848        4.8639271635
  H        46.6628859421       22.2902603748        6.1721133431
  H        47.6291415086       23.5757622488        1.2462181419
  H        14.8708367307        8.5877345032        4.6085449129
  H        50.2867130928       22.7019580605       12.0609369801
  H        49.2686516209       24.5748024440       13.3610968215
  H        45.6106591273       24.1095097644       11.1455703987
  H        46.6527678256       22.2541078140        9.8314456087
  H        47.6071787766       23.5517066913       14.7968995344
  H        40.6406197266       17.1089601434       11.4149240444
  H        48.6868563372       14.0952301455        7.7999547616
  H        10.6811150322       12.4670741939       12.0933490651
  H        11.6889660986       10.5248880418       13.2971913922
  H        15.3928549543       11.1580765608       11.2054422548
  H        14.3645751450       13.0869501528        9.9901913507
  H        13.3759473669       11.6220032033       14.7529605850
  H        47.9297438784       14.2204900413        9.7103516535
  H        47.7802938705       14.3758194202        6.4951634972
  H        49.0820298464       18.5515094632       10.8669446089
  H        10.4153731576       14.1344023068        7.9986670348
  H        24.4809442104        3.0232562466        3.9142194830
  H        25.6251223572        4.8775055931        2.6844158738
  H        23.2528271133        7.7524473544        4.8310767079
  H        22.1278745896        5.8877882950        6.0628845426
  H        23.8223237767        5.7881930250        1.2523247962
  H        36.3612087559       32.1843462091        3.9768864411
  H        35.2198701172       30.3622150829        2.7138278559
  H        37.4650945012       27.4346347652        4.9250861649
  H        38.5869381933       29.2696450460        6.1976919839
  H        36.9786877355       29.4533739204        1.3056009231
  H        25.7472788234        8.5988854239        4.6417638440
  H        36.4670600234       32.2435762695       12.1259051851
  H        35.3595773341       30.4305926581       13.4272803694
  H        37.5280246530       27.4884949367       11.1568520330
  H        38.6113234178       29.3132106645        9.8438804797
  H        37.0171582316       29.4763999887       14.8595963211
  H        46.1086756685       26.5871559866       11.3855068399
  H        44.6677647816       35.1157211676        7.8139869950
  H        24.4471551104        3.0349978558       12.0730206807
  H        25.5889954266        4.8711793068       13.3200440590
  H        23.1792435556        7.7660478393       11.2437634862
  H        22.0501796423        5.9174251259        9.9959978872
  H        23.8071659861        5.7891048602       14.8027184175
  H        44.9519677190       34.3887859241        9.6941729427
  H        44.9000489491       34.2060750421        6.4906080624
  H        40.6643206532       33.2073934921       10.8523059258
  H        23.1508734317        1.9564724723        8.0045451296
  H        25.8473835398       19.6374911207        3.8497905561
  H        23.6931011046       19.6993668358        2.6173151862
  H        22.2838321433       16.3377386124        4.9042470218
  H        24.4537662143       16.2654219089        6.1208769032
  H        23.7178531108       17.7055448102        1.2305689439
  H        35.1369439357       15.4760941787        3.9615229061
  H        37.2507165102       15.4442239044        2.6460682362
  H        38.7151073589       18.7797730862        4.9355538905
  H        36.5933377332       18.7992109076        6.2523508409
  H        37.2244058637       17.4036311336        1.2445091739
  H        20.3500225045       18.0134460243        4.6577174132
  H        35.1674277832       15.4444917246       12.1288125492
  H        37.3008156418       15.4087834977       13.4166874324
  H        38.7329944672       18.7586165768       11.1276644662
  H        36.5955280921       18.7794983240        9.8350849326
  H        37.2359113207       17.3960683644       14.7979199794
  H        35.1814548971       26.6763455794       11.4060760162
  H        28.5042757901       21.1303944315        7.8844510245
  H        25.7784321975       19.6216483915       12.1839070331
  H        23.6022494863       19.6826051721       13.4038754848
  H        22.2494598771       16.2762750102       11.1520521831
  H        24.4254484035       16.2331230943        9.9267791411
  H        23.6977579726       17.6822962884       14.7875247674
  H        29.0093320493       21.8192822452        9.7376628779
  H        29.1587897372       21.7351207262        6.5272186889
  H        32.0454728945       18.5091488104       10.9601924499
  H        27.3891312714       19.0334749584        8.0927066387
  H        14.8385642222       19.6544707730       12.1323246829
  H        17.0027093000       19.7124324234       13.3733445489
  H        18.3125577636       16.2159012251       11.2382817294
  H        16.1434839234       16.1733890016        9.9975823810
  H        16.9217335494       17.7278264874       14.8342769385
  H        46.0908099183       15.4464675623       12.0732110773
  H        43.9657957178       15.3908830981       13.3785347140
  H        42.5448730166       18.8105738680       11.1893878020
  H        44.6704036137       18.8411258980        9.8739578309
  H        44.0178249420       17.3243284998       14.8294095083
  H        20.2848864712       17.9449242421       11.4065570093
  H        46.0440726761       15.3955096470        4.0234053096
  H        43.9144093928       15.3391811480        2.7270593673
  H        42.5166435259       18.7863798992        4.8868554262
  H        44.6531940067       18.8296997936        6.1833006024
  H        44.0054804404       17.3076460072        1.2783164117
  H        46.1983755473       26.6821929666        4.6233823740
  H        52.7407612512       21.0623874640        8.1945461020
  H        14.8616100751       19.6786786385        3.8949146054
  H        17.0570523780       19.7687068539        2.7080004804
  H        18.3473396920       16.2638765013        4.8404137074
  H        16.1529736936       16.1977681665        6.0367815636
  H        16.9415001070       17.7477103852        1.2818978785
  H        52.3204759551       21.6728484408        6.2951579724
  H        52.0115928624       21.7009202860        9.4951968281
  H        49.0665829216       18.6075231278        5.2046642783
  H        13.2471555806       19.0165308751        7.9768638760
  H        29.9585309931       12.4783005493       12.2372755414
  H        28.8990700327       10.5577868974       13.4281736596
  H        25.2936493608       11.1366248322       11.1542391215
  H        26.3675605032       13.0469953633        9.9575632944
  H        27.1812172496       11.6706303154       14.7886752905
  H        31.0272181728       22.7428526047       12.0493999191
  H        32.0347565913       24.6192484857       13.3416093091
  H        35.6969442615       24.1643989922       11.1317497146
  H        34.6711378289       22.2955124595        9.8293816724
  H        33.7033662113       23.5632695717       14.7580848477
  H        25.7366460963        8.5825757496       11.3960152279
  H        30.9209826665       22.6347441672        3.8537624309
  H        31.9384580453       24.5073564657        2.5764693864
  H        35.5180220995       24.1703502225        4.9403905179
  H        34.4922263027       22.2894022087        6.2121547897
  H        33.6524360574       23.5480937420        1.2027664772
  H        40.5981996519       17.1032559147        4.6589793206
  H        32.5276643481       14.1052368934        8.1907086670
  H        29.8852564638       12.5607159609        3.8681246831
  H        28.8632724478       10.6571112901        2.6209796001
  H        25.2411918986       11.1178336992        4.8965571369
  H        26.2839086429       13.0016879879        6.1584493393
  H        27.1678072635       11.6866044413        1.2327702806
  H        33.3091804342       14.2145802737        6.4603267730
  H        33.4555655377       14.2374307825        9.5863799995
  H        32.0542053732       18.4281207890        5.1462860090
  H        30.1873685455       14.1961544514        8.1090896400
  H        16.1202606495        2.9624650076       12.1317368343
  H        14.9546955393        4.8192201911       13.3245602152
  H        17.3621288043        7.6856456662       11.2072618017
  H        18.5112224078        5.8181883278       10.0072483613
  H        16.7532002710        5.7392136021       14.7716289021
  H        44.8273162600       32.1402035450       11.9775823599
  H        45.9364608404       30.3412717563       13.3070999476
  H        43.6827874113       27.3780726812       11.1518744734
  H        42.5998915292       29.1898516206        9.8094887820
  H        44.2296703710       29.4362481352       14.7688809996
  H        14.8494640521        8.5452678257       11.3633477655
  H        44.8987163175       32.2340095474        3.9309164142
  H        46.0233402128       30.4129286423        2.6511937804
  H        43.7640986298       27.4839644910        4.8462354183
  H        42.6462700603       29.3175276833        6.1252040955
  H        44.2677325500       29.4700087626        1.2180732883
  H        35.0279449812       26.6083816566        4.6524411580
  H        36.6049545247       35.1336119913        8.1808922452
  H        16.1450076373        3.0124004321        3.9027237271
  H        14.9752205075        4.8555374210        2.6868562746
  H        17.3928262416        7.7471556267        4.7576179869
  H        18.5400832462        5.8932324782        5.9854846405
  H        16.7643780907        5.7552461002        1.2193001897
  H        36.2796683475       34.4809499175        6.2736732160
  H        36.3826641901       34.2082358528        9.5000398224
  H        40.5773266224       33.2002137952        5.1548227386
  H        17.4710133567        1.9462273016        7.9739870795
  H        29.1335541730       19.3638639556       12.5651676000
  H        28.5935411720       18.7282655141        3.8622980641
  H        31.8837598395       15.7875310525        3.5850768346
  H        31.2267523677       15.6091945861       12.4707115119
  H        28.0266773634       17.7977090086       14.3450328389
  H        29.3438556211       15.3731409607       14.2909392107
  H        32.4105979422       17.1853986031        1.2199817632
  H        18.8537156817        0.8694505934       12.3348137242
  H        40.5278651035       35.2294342971        3.9524553821
  H        42.3211852964       34.4160391329        3.5927133585
  H        22.0882171481        0.6924729089       12.3509607103
  H        11.5973370670       18.7119554570       12.3816563467
  H        52.2649337834       18.4304178287        3.6782576599
  H        49.2543958113       16.4782641679        3.5856700869
  H        10.1511617190       15.7984497306       12.2922751963
  H        50.8496286058       17.6924064585        3.9543501843
  H        10.0461022185       17.3948108911       12.0519309348
  H        20.2144978428        0.0022484021       12.0421666486
  H        39.1833266459       36.1243875863        3.6866013696
 Ni        30.5249409725       17.4251313424        2.6616230126
 Ni        30.8601430196       16.2579953699       -0.1636785799
 Ni        29.5528484736       18.1741105461        0.0860871558
 Ni        30.0611776626       17.3944242636       13.1551335376
  O        10.6498991139       14.3650389814        5.4856987672
  O        12.6132178014       14.6574429048        6.5838443927
  O        49.1478090890       16.8459484313        7.9897679004
  O        50.3501756909       20.9362723234        5.6482235476
  O        48.3484911791       20.5933890762        6.6659816104
  O        11.0511080590       17.0539950593        6.5006521326
  O        50.3210347358       20.8817578674       10.4068326266
  O        48.3467160588       20.5868310715        9.3271370385
  O        49.5434602319       18.2484074456       10.0683125819
  O        12.3588500001       18.6245244451        7.9995545271
  O        48.6930630922       14.1485794108        6.7512336829
  O         8.2097398462       14.2103846707        9.3226166899
  O        10.7353269326       14.5066303611       10.6644243892
  O        12.5718219837       14.5827246405        9.3284844053
  O        22.8447477363        2.0428113977        5.4868965266
  O        21.6062550130        3.5929707121        6.5887728632
  O        42.0575865581       34.1366738766        7.9789346309
  O        37.9814752513       33.1368735888        5.5722808281
  O        39.2174851253       31.5756472747        6.6658362066
  O        20.3082647450        1.0394279361        6.5017349467
  O        38.0249845345       33.1862480781       10.4152441743
  O        39.2186950913       31.5835148866        9.3269785821
  O        40.6521654283       33.7689399857       10.0602313892
  O        18.2559329895        1.3753862858        7.9967880896
  O        44.6222615937       35.1004439341        6.7586889673
  O        24.2054136576        0.0000446531        9.3208835484
  O        22.7533626824        2.0576109161       10.5837164770
  O        21.6248264666        3.5965857865        9.3429847584
  O        27.5352805856       18.6805747957        5.4838206550
  O        26.6956107858       16.9284632976        6.6649711402
  O        30.6353357388       19.3513003687        8.0826828784
  O        33.5880241265       16.2728427228        5.6779222925
  O        34.2661321087       18.1689973264        6.7395734621
  O        29.5311295151       17.0121836249        6.5836134780
  O        33.5933624960       16.2629179264       10.4088310803
  O        34.2690668563       18.1777151272        9.4039541538
  O        31.6432337426       18.3022757512       10.0971744729
  O        30.3136024837       15.1594979123        8.0929090935
  O        28.5528348997       21.0365706281        6.8370879276
  O        28.5501238147       21.0292963158        9.4051490909
  O        27.4579971618       18.6839407858       10.6555108259
  O        26.6953206443       16.9295652286        9.4113746695
  O        13.1467965649       18.6936402788       10.5864992802
  O        13.9188442038       16.9162130313        9.4043642384
  O        50.5958248035       19.3501847884        8.0204644570
  O        47.6830409918       16.3270060952       10.4173109014
  O        46.9513138274       18.1756919147        9.3249138888
  O        11.0696620565       17.0153607008        9.4896691289
  O        47.6762269466       16.3356024540        5.6530085387
  O        46.9272798588       18.2357569017        6.6644413974
  O        49.5688714140       18.3177958667        5.9822756841
  O        10.3185715768       15.1002784176        7.9970591050
  O        52.6706528701       21.0280185609        9.2418087218
  O        12.1467959895       20.8914194945        6.6732673872
  O        13.1067104896       18.6142466661        5.3256605679
  O        13.9575937595       16.9876613412        6.6642965249
  O        30.0034243137       14.4294832798       10.6612294054
  O        28.0785094056       14.6555659051        9.4848195335
  O        32.0685148332       16.8600819711        8.0756384508
  O        30.9729305067       20.9583928346       10.4046805881
  O        32.9485019729       20.5945002316        9.3330130451
  O        29.4528829346       17.0098155155        9.7490690052
  O        30.8711116464       20.8049935309        5.5783698796
  O        32.8604633893       20.5789432363        6.6688949653
  O        31.6115973201       18.2457597715        5.9942566064
  O        28.2895458592       18.6684275599        8.0922942052
  O        32.5271267973       14.1422588208        9.3081820029
  O        32.4093777964       14.2108406305        6.8299369657
  O        29.9151896469       14.4334864070        5.4909776872
  O        28.0336004667       14.5828096483        6.7451603819
  O        17.8891502952        1.9664167853       10.6628072820
  O        18.9562498980        3.5270276370        9.4079793006
  O        39.1686440328       34.1385449048        7.9970201657
  O        43.2801732158       33.0589183615       10.3316168475
  O        42.0345329285       31.5064442262        9.2415056615
  O        20.3174878645        1.0363541473        9.4803988826
  O        43.2760456713       33.1825396103        5.5749631007
  O        42.0052228005       31.5840727475        6.5830635101
  O        40.5790318043       33.7748384715        5.9355554569
  O        22.3669955194        1.3844044275        7.9978991699
  O        36.6726251192       35.0995606551        9.2334254368
  O        16.4453846276        0.0639689449        6.6681806498
  O        17.9363568598        2.0432550747        5.3264497749
  O        18.9191431855        3.5930653161        6.6659724482
  O        29.5684901539       18.8312951246        3.9915394568
  O        29.8247412697       18.9738701997       11.9895121806
  O        31.3823033791       16.4022037407        4.1531906788
  O        31.2897275356       16.4216484226       11.9226713028
  O        31.7605536312       16.4846827404        1.4252332912
  O        30.2331297545       15.7574733409       14.1706071757
  O        28.8485254757       18.3221032411       14.3273359204
  O        39.4568016133       35.2438301614        4.0019554024
  O        19.1415778686        0.0047680541       11.9906777000
  O        41.9698509253       35.1727738803        4.0872374525
  O        21.6916647363       -0.0690694910       11.8957803297
  O        51.3648913245       18.6142524257        4.0053335298
  O        10.7510637260       18.7472216297       11.9050584258
  O        50.0795427083       16.4127995234        4.0916763321
  O         9.5248516127       16.4830495866       11.9912047717
 Zr         9.2957476922       16.0531337557        6.1823913365
 Zr        49.8355216114       16.0071333820        9.7465138776
 Zr        22.0723667227        0.0277052864        6.1896184863
 Zr        42.4600148711       35.1515256703        9.8003927543
 Zr        29.6077498167       19.0696935947        6.3762517826
 Zr        29.5756622428       19.2853923386        9.9187412667
 Zr        11.0372872500       19.0518666705        9.8275955598
 Zr        11.0431901184       19.1548010553        6.2511923816
 Zr        31.4609630096       16.0195816130        9.8625721879
 Zr        31.3809149110       15.9926265359        6.2379331027
 Zr        18.6001361596       -0.0037460506        9.7637465536
 Zr        18.5058503974       -0.0096608496        6.2133638152
 Zr        12.3014074782       16.3240748426        7.9900433313
 Zr        48.6150591243       18.8327427254        8.0103043870
 Zr        20.3140217904        2.4711974593        7.9906706636
 Zr        40.6412421310       32.6844276209        7.9782594822
 Zr        28.2727756800       16.2800329146        8.0224569836
 Zr        32.6524110248       18.8242783645        8.0599290628
  H        29.4335664432       17.9508323293        1.6133215622
  H        29.8838818794       19.5276984967        3.3744481632
  H        29.0425108339       16.7738137645       10.6093572125
