     574
 i =      175, E =     -4778.8652503751
  C        11.8588433502       14.0535030940        5.7415501603
  C        12.4562900411       12.8905122576        5.0233382532
  C        11.7046343617       12.1717348320        4.0815282986
  C        12.2810033864       11.1095659677        3.3891251589
  C        13.6214897226       10.7395563746        3.6170558441
  C        14.3545927090       11.4429805825        4.5906825074
  C        13.7817332402       12.5079414369        5.2822385144
  C        14.2610606707        9.6489501271        2.8436136645
  C        14.2563951865        9.6568895309        1.4219113891
  C        13.7433313904       10.7590598723        0.6680009326
  C        49.1268211000       21.2333316305        5.8796634588
  C        48.5500965529       22.4012671542        5.1526202178
  C        49.3001080632       23.0685318281        4.1715647440
  C        48.7331854383       24.1076845189        3.4383834612
  C        47.4026756120       24.5094208726        3.6670565430
  C        46.6717776604       23.8606495768        4.6806865435
  C        47.2342170076       22.8157427616        5.4100373794
  C        46.7724247780       25.5870985593        2.8697720641
  C        46.7614536011       25.5574810738        1.4480097185
  C        47.2614753126       24.4424354231        0.7045032399
  C        14.8603544958        8.5705597495        0.7086464057
  C        14.8917416619        8.5969372700        3.5202590482
  C        49.1131858308       21.2035667347       10.1454312240
  C        48.5278386740       22.3649224853       10.8725255825
  C        49.2670714728       23.0256624981       11.8654286926
  C        48.6907007499       24.0602036647       12.5968668342
  C        47.3602825123       24.4569757596       12.3586211863
  C        46.6398904742       23.8120375232       11.3350963784
  C        47.2134663967       22.7761540545       10.6033098590
  C        46.7217843145       25.5318962954       13.1496587130
  C        46.7336185202       25.5282847751       14.5713599102
  C        47.2491740541       24.4291288633       15.3277436198
  C        40.6333915151       17.1281661105       15.3195722042
  C        40.6507314357       17.1584104375       12.5105976384
  C        11.8830420518       14.0864937122       10.2854603241
  C        12.4723142855       12.9106515053       10.9896478325
  C        11.7148658644       12.1776183667       11.9159504781
  C        12.2814425697       11.0951866364       12.5844105080
  C        13.6201701664       10.7212376098       12.3523759788
  C        14.3580216576       11.4365645439       11.3912936290
  C        13.7926106809       12.5177166748       10.7185622136
  C        14.2538098567        9.6245343374       13.1228211080
  C        14.2525782625        9.6445471082       14.5446628274
  C        13.7427936553       10.7535333589       15.2917448636
  C        22.5131434291        3.2456370934        5.7540089997
  C        23.2294825164        4.3530740291        5.0576912696
  C        24.2324531940        4.0765071939        4.1167500158
  C        24.8603452325        5.1181169053        3.4381137991
  C        24.5012101606        6.4593007687        3.6794075661
  C        23.5266185252        6.7275288513        4.6579055066
  C        22.8944527510        5.6877071294        5.3352312735
  C        25.1054931150        7.5670898377        2.9030943275
  C        25.0800477860        7.5558769410        1.4813582509
  C        24.3797472367        6.5534954210        0.7374876455
  C        38.2975050901       31.9278772574        5.8517058155
  C        37.5544978442       30.8406663306        5.1499944788
  C        36.5900058763       31.1504230259        4.1783934273
  C        35.9567764586       30.1347132875        3.4673060034
  C        36.2724227266       28.7821366369        3.7035992790
  C        37.2063433533       28.4799405600        4.7129308592
  C        37.8434787756       29.4946986035        5.4237706712
  C        35.6582693448       27.6963352993        2.9042293130
  C        35.6944736996       27.7130304672        1.4822448731
  C        36.4093443262       28.7121691446        0.7491175078
  C        25.7020054386        8.6247082921        0.7587837974
  C        25.6970595226        8.6470553847        3.5712366405
  C        38.3296239010       31.9608068330       10.1601337564
  C        37.6105045826       30.8894457047       10.9091336742
  C        36.6773511208       31.2020703133       11.9099766353
  C        36.0636582751       30.1874246473       12.6424968941
  C        36.3676594495       28.8327410910       12.3991268187
  C        37.2819135560       28.5300600026       11.3710588252
  C        37.8974748808       29.5413032304       10.6394414209
  C        35.7479080730       27.7368761302       13.1809000067
  C        35.7402100731       27.7335406019       14.6035572488
  C        36.4298854368       28.7227921504       15.3724732902
  C        46.1355389616       26.6208710932       15.2815062984
  C        46.0876831598       26.5801724607       12.4736069758
  C        22.4604725957        3.2561894182       10.2593087516
  C        23.1533159334        4.3646349055       10.9851226705
  C        24.1533474778        4.0778054322       11.9280302149
  C        24.7806085654        5.1070631011       12.6263295255
  C        24.4286009972        6.4536210801       12.4044027992
  C        23.4511259738        6.7336328685       11.4304992368
  C        22.8191162361        5.7046021002       10.7329031506
  C        25.0608180743        7.5518773413       13.1781182016
  C        25.0578300494        7.5469589007       14.6012702731
  C        24.3667616994        6.5505551609       15.3606667305
  C        26.6043678672       17.8997969292        5.7820876360
  C        25.3019400383       17.9573639709        5.0529022152
  C        25.0470737682       18.9557918688        4.0997709626
  C        23.8345348409       18.9802658429        3.4128473486
  C        22.8418896489       18.0097407687        3.6574783273
  C        23.0933037412       17.0341978911        4.6407794697
  C        24.3066291476       17.0045434341        5.3253579315
  C        21.5704293543       17.9940676620        2.8917379389
  C        21.5725289584       17.9713682583        1.4694033934
  C        22.7796793723       17.8549558551        0.7103053293
  C        34.4479578839       17.1976721267        5.9233009872
  C        35.7406104716       17.1486327133        5.1806644726
  C        35.9619804596       16.1605916990        4.2081976023
  C        37.1395814871       16.1542898533        3.4663879339
  C        38.1296265671       17.1321153122        3.6812681124
  C        37.9138470869       18.0991809785        4.6811002757
  C        36.7318686018       18.1129041282        5.4177665815
  C        39.3827904662       17.1417904573        2.8936795335
  C        39.3767217928       17.1467309126        1.4723848240
  C        38.1680314026       17.2565718560        0.7152894490
  C        20.3262880469       17.9785823966        0.7603352383
  C        20.3455653393       17.9879936007        3.5736508700
  C        34.4705949205       17.2431556852       10.1844688617
  C        35.7730992689       17.1652755766       10.9066328704
  C        35.9950613814       16.1693186394       11.8693290380
  C        37.1810775619       16.1495493915       12.5976402655
  C        38.1736148299       17.1245506374       12.3805713548
  C        37.9590706579       18.0954150030       11.3850913682
  C        36.7706812992       18.1204361665       10.6604972590
  C        39.4204688943       17.1418804768       13.1759623464
  C        39.3961877216       17.1480301287       14.5967557059
  C        38.1774139979       17.2560953703       15.3383608118
  C        35.0964338224       26.6589798730       15.3035966328
  C        35.1614594527       26.6660500724       12.4941056191
  C        26.5711290968       17.8313316458       10.3255587159
  C        25.2550856090       17.8838261406       11.0273809983
  C        24.9874192960       18.9022204721       11.9545947859
  C        23.7691756934       18.9343489960       12.6271430305
  C        22.7899182331       17.9479381188       12.3960784785
  C        23.0511414637       16.9546815274       11.4348328417
  C        24.2699047059       16.9208267658       10.7599941868
  C        21.5265470204       17.9349225629       13.1695222667
  C        21.5496968460       17.9390252797       14.5910409293
  C        22.7686673108       17.8387171906       15.3340311256
  C        14.0462361847       17.8301561052       10.2872086454
  C        15.3509138680       17.8913178012       11.0101408322
  C        15.6061295027       18.8992050570       11.9530250493
  C        16.8152907836       18.9248594010       12.6447558172
  C        17.8026107081       17.9454368305       12.4153820265
  C        17.5523477930       16.9618381895       11.4400416839
  C        16.3425135134       16.9316698005       10.7497468761
  C        19.0709893648       17.9346432250       13.1842584086
  C        19.0684072112       17.9400744876       14.6065602040
  C        17.8612390758       17.8388515794       15.3672863644
  C        46.8062535258       17.2192356266       10.1589505091
  C        45.5173871000       17.1596711260       10.9056894345
  C        45.3122480007       16.1845221145       11.8937709417
  C        44.1313872381       16.1694864142       12.6309555125
  C        43.1268849713       17.1297069568       12.4012579687
  C        43.3293664674       18.0845623598       11.3867492475
  C        44.5109399181       18.1035579251       10.6506966965
  C        41.8744543684       17.1428545936       13.1896242711
  C        41.8801397256       17.1429448036       14.6112045323
  C        43.0891053611       17.2403175964       15.3695683765
  C        20.3144791221       17.9620811245       15.3154118587
  C        20.2951493350       17.9137724969       12.5025400188
  C        46.7867904109       17.2320075698        5.8894821204
  C        45.4840687848       17.1300452264        5.1738960951
  C        45.2631500419       16.1336713041        4.2113373476
  C        44.0755546611       16.1127666462        3.4845956637
  C        43.0808529818       17.0852570929        3.7041145030
  C        43.2917999139       18.0510839617        4.7054896387
  C        44.4804513404       18.0783570170        5.4271985271
  C        41.8355258268       17.1122034427        2.9074733194
  C        41.8603795287       17.1256428867        1.4869195963
  C        43.0798638917       17.2293055401        0.7462083014
  C        46.1533635202       26.6373201923        0.7262621771
  C        46.1623857283       26.6561759825        3.5359009535
  C        14.0450569069       17.8336857078        5.7088285038
  C        15.3648827198       17.9153512230        5.0171735320
  C        15.6290083476       18.9340971396        4.0893498621
  C        16.8558712310       18.9813233436        3.4314573798
  C        17.8466481664       18.0093272678        3.6760239236
  C        17.5891939790       17.0192763994        4.6418521483
  C        16.3639916789       16.9712689531        5.3031142645
  C        19.1135531402       17.9960384578        2.9062472812
  C        19.0906427208       17.9712071771        1.4846942296
  C        17.8720302783       17.8528389668        0.7435446404
  C        28.8087769527       14.0934757003       10.3914001498
  C        28.1936514336       12.9205942732       11.0805762951
  C        28.9242431763       12.1602829517       12.0058974021
  C        28.3240318004       11.0864610135       12.6591244281
  C        26.9793100575       10.7464135386       12.4084492563
  C        26.2693406662       11.4864268153       11.4462182075
  C        26.8669656522       12.5618757931       10.7933075028
  C        26.3124144358        9.6651330049       13.1707399382
  C        26.3054759462        9.6917416946       14.5917320324
  C        26.8130837292       10.8046631300       15.3344309532
  C        32.1785105892       21.2406990625       10.1484585116
  C        32.7672568004       22.4094050624       10.8662587849
  C        32.0125873952       23.0882099555       11.8355834648
  C        32.5757278917       24.1316187593       12.5635530691
  C        33.9102811057       24.5243053336       12.3446856156
  C        34.6479418390       23.8641608177       11.3434353059
  C        34.0867840064       22.8157217961       10.6166776575
  C        34.5331100515       25.6007466666       13.1490723610
  C        34.5066778487       25.5764469157       14.5711822529
  C        33.9816434690       24.4666434697       15.3060736386
  C        25.6962641997        8.6156702547       15.3135523989
  C        25.6732861198        8.6147529151       12.4995664161
  C        32.0775300818       21.2018411456        5.8778480552
  C        32.6413817067       22.3673878335        5.1350150754
  C        31.9015000699       23.0176586379        4.1348056541
  C        32.4691236004       24.0595799974        3.4029948753
  C        33.7903121046       24.4826117728        3.6523256539
  C        34.5103253007       23.8466149181        4.6823255268
  C        33.9484964915       22.8008455534        5.4090107843
  C        34.4279603560       25.5692721595        2.8717018842
  C        34.4510815875       25.5617886152        1.4491887209
  C        33.9539558017       24.4612491159        0.6826505643
  C        40.6230931424       17.1235842280        0.7636881664
  C        40.6054742317       17.1414380651        3.5734449095
  C        28.7224647993       14.1035619989        5.8185183070
  C        28.1074789266       12.9570941042        5.0830143032
  C        28.8463382922       12.2642393318        4.1109331495
  C        28.2715227226       11.2036215290        3.4146788787
  C        26.9412869352       10.8080379608        3.6629909032
  C        26.2190800336       11.4907090772        4.6603060542
  C        26.7922674953       12.5521650398        5.3594513195
  C        26.3071852424        9.7102792093        2.8920358032
  C        26.3030628506        9.7157754631        1.4694985248
  C        26.8080231856       10.8180924059        0.7104857421
  C        18.1354144210        3.1808290276       10.3171368577
  C        17.4060731216        4.2781122975       11.0157431988
  C        16.3903456973        3.9997443685       11.9432400899
  C        15.7426125249        5.0397199602       12.6067567136
  C        16.0945078737        6.3834396051       12.3670668862
  C        17.0838856310        6.6529766936       11.4033001058
  C        17.7329746832        5.6156351501       10.7382347310
  C        15.4702155912        7.4911615758       13.1301275942
  C        15.4855009810        7.4905025917       14.5518457446
  C        16.1870308788        6.4968733638       15.3050214500
  C        42.9457234011       31.8594949527       10.0728060263
  C        43.6460516169       30.7718106042       10.8168033771
  C        44.5917102011       31.0931226751       11.8027531450
  C        45.1973960668       30.0875704160       12.5504247784
  C        44.8707686948       28.7345322523       12.3357274017
  C        43.9447577803       28.4202035760       11.3226866646
  C        43.3359485063       29.4253496377       10.5746368370
  C        45.4884432056       27.6552618933       13.1388995198
  C        45.4927045473       27.6809261288       14.5605931342
  C        44.8055775328       28.6889448147       15.3072153663
  C        14.8565919468        8.5630356095       15.2642087568
  C        14.8749069421        8.5629186953       12.4515445714
  C        42.9463591664       31.9616070458        5.8089958514
  C        43.6915781907       30.8854792816        5.0954786658
  C        44.6564001844       31.1913901868        4.1234052782
  C        45.2779248006       30.1718146748        3.4056611008
  C        44.9539293878       28.8215154339        3.6430898099
  C        44.0201603218       28.5238347016        4.6535898215
  C        43.3918819104       29.5405935712        5.3657726405
  C        45.5630288903       27.7241308916        2.8578457745
  C        45.5333133298       27.7174310219        1.4365499209
  C        44.8269145351       28.7076141600        0.6836081289
  C        35.0704954528       26.6504165571        0.7491654607
  C        35.0430097971       26.6235136736        3.5596694907
  C        18.1486246276        3.2468547547        5.7066548618
  C        17.4299676876        4.3437476520        4.9974145341
  C        16.4148160777        4.0524577641        4.0737938942
  C        15.7664981037        5.0830746725        3.3983741527
  C        16.1210744020        6.4283184940        3.6211544214
  C        17.1123974829        6.7117241495        4.5784646457
  C        17.7600667303        5.6828223359        5.2582612620
  C        15.4906223130        7.5240292837        2.8486791205
  C        15.4965303364        7.5074286943        1.4275390679
  C        16.1932530994        6.5057020891        0.6808367220
  H        10.6725695431       12.4660070146        3.9043789423
  H        11.6947509852       10.5511811103        2.6624843060
  H        15.3915589390       11.1682344362        4.7725561308
  H        14.3511821960       13.0710992380        6.0177378372
  H        13.3763557913       11.6312022237        1.2013072407
  H        50.3227965753       22.7484584759        3.9867775407
  H        49.3196667142       24.6229090026        2.6807760258
  H        45.6423371663       24.1615386287        4.8639577905
  H        46.6632476971       22.2906470511        6.1722614170
  H        47.6300988183       23.5760853326        1.2461681798
  H        14.8720343966        8.5881450791        4.6085653783
  H        50.2871284679       22.7028525540       12.0603472187
  H        49.2690881341       24.5757116384       13.3603376383
  H        45.6104961401       24.1092957962       11.1460037675
  H        46.6526586232       22.2540139303        9.8317256228
  H        47.6080216828       23.5520331019       14.7968569950
  H        40.6562720473       17.1282296117       11.4227260885
  H        48.6871657777       14.0949669711        7.8001141048
  H        10.6814588674       12.4668265232       12.0934984763
  H        11.6897023566       10.5249123910       13.2972448518
  H        15.3933726994       11.1585076297       11.2051669457
  H        14.3648982945       13.0869315426        9.9898686371
  H        13.3760281029       11.6221760600       14.7531128958
  H        47.9302649034       14.2183914469        9.7108843365
  H        47.7800883603       14.3737854635        6.4954037618
  H        49.0841978674       18.5525597756       10.8676260032
  H        10.4162042888       14.1342514455        7.9986579580
  H        24.4977265147        3.0387916534        3.9269260721
  H        25.6378226591        4.9024222850        2.7084087571
  H        23.2410484081        7.7594726182        4.8512605841
  H        22.1199201271        5.8862531103        6.0720174625
  H        23.8202406172        5.7968940344        1.2797996061
  H        36.3612027702       32.1952386466        3.9821265416
  H        35.2097256918       30.3805582833        2.7157525536
  H        37.4584520094       27.4389655325        4.9045597174
  H        38.5896185227       29.2668739347        6.1814334272
  H        36.9736064781       29.4600678171        1.2984570622
  H        25.7286937371        8.6341353040        4.6592460542
  H        36.4520132206       32.2470704686       12.1105215870
  H        35.3334334341       30.4374302719       13.4090057633
  H        37.5308394375       27.4890086549       11.1760070510
  H        38.6236420619       29.3103765394        9.8637792809
  H        37.0107919871       29.4785842206       14.8516235674
  H        46.1089898993       26.5875450570       11.3855686229
  H        44.6681683585       35.1161096699        7.8138791806
  H        24.4303015353        3.0393497476       12.0951856025
  H        25.5601130294        4.8765983188       13.3494086836
  H        23.1670186517        7.7683453740       11.2497218074
  H        22.0489745891        5.9189017840        9.9954700073
  H        23.7964147928        5.7925052017       14.8316853212
  H        44.9534919587       34.3901721728        9.6950623722
  H        44.9011795350       34.2066376112        6.4905369495
  H        40.6656183940       33.2087801019       10.8529764399
  H        23.1505160689        1.9577729371        8.0057153363
  H        25.8076652606       19.7104469124        3.9127506017
  H        23.6414941471       19.7608865043        2.6800617304
  H        22.3382171866       16.2759261604        4.8379266155
  H        24.5122155109       16.2384920907        6.0693652939
  H        23.7214222808       17.7474196842        1.2404506720
  H        35.1980209812       15.4043695686        4.0437442760
  H        37.3096621057       15.3827149517        2.7186278253
  H        38.6719010947       18.8610728438        4.8507045121
  H        36.5469749429       18.8739764974        6.1723608363
  H        37.2279145135       17.3726880101        1.2470847633
  H        20.3515797608       18.0276647017        4.6615219617
  H        35.2195673803       15.4269272121       12.0420520211
  H        37.3530904590       15.3752561634       13.3421422381
  H        38.7201772026       18.8539380667       11.2142709531
  H        36.5820323037       18.8872805031        9.9129839672
  H        37.2446427540       17.3721066585       14.7939143690
  H        35.1472877490       26.6886261013       11.4060618639
  H        28.5093165878       21.0812354088        7.9710888582
  H        25.7466253172       19.6606510324       12.1312198491
  H        23.5617199986       19.7279347925       13.3417489450
  H        22.3025789908       16.1867886056       11.2506037048
  H        24.4877914399       16.1426287438       10.0324274641
  H        23.7017459948       17.7188594955       14.7915453717
  H        29.0029814476       21.7210578158        9.7615460930
  H        29.1495650914       21.7471289803        6.6178164886
  H        32.0913795536       18.5557549224       10.9890707536
  H        27.4083374967       19.0780439577        8.0837141001
  H        14.8463855409       19.6576174243       12.1281321269
  H        17.0104111543       19.7122921505       13.3695853070
  H        18.3048875603       16.1981576842       11.2545195393
  H        16.1368194383       16.1593626498       10.0123883970
  H        16.9197703099       17.7164847831       14.8397043237
  H        46.0951110168       15.4522838344       12.0768698135
  H        43.9718355427       15.4058295883       13.3889950688
  H        42.5613881872       18.8337827925       11.2059821853
  H        44.6847691726       18.8548839234        9.8839777243
  H        44.0303702962       17.3561126379       14.8398702159
  H        20.2893899098       17.9349143158       11.4142154248
  H        46.0376745462       15.3909413633        4.0341923511
  H        43.9056916237       15.3402843971        2.7377490509
  H        42.5279994685       18.8058101734        4.8807881997
  H        44.6663552866       18.8428285252        6.1775131720
  H        44.0140457827       17.3353661550        1.2900696438
  H        46.1991785251       26.6827311880        4.6233474589
  H        52.7412264458       21.0627504742        8.1946611462
  H        14.8627121875       19.6827026388        3.9007763849
  H        17.0596720497       19.7744027854        2.7152089002
  H        18.3458398661       16.2624114719        4.8381996066
  H        16.1501302406       16.1940380574        6.0328256116
  H        16.9387718799       17.7408843750        1.2872319989
  H        52.3225934332       21.6735183552        6.2944674474
  H        52.0135760670       21.7023708711        9.4957238326
  H        49.0678294830       18.6080342485        5.2040525457
  H        13.2474057311       19.0166668720        7.9772252365
  H        29.9627295935       12.4223269234       12.1956705957
  H        28.8920817144       10.4966420333       13.3753937010
  H        25.2301153329       11.2339843807       11.2456136011
  H        26.3164483909       13.1542389053       10.0665229859
  H        27.1791853172       11.6702534644       14.7905682116
  H        30.9872902673       22.7741229660       12.0150035471
  H        31.9839769417       24.6540425852       13.3118909430
  H        35.6812492092       24.1570533698       11.1689640058
  H        34.6627594359       22.2810966788        9.8648518045
  H        33.6223384222       23.5973601806       14.7622023304
  H        25.6982818054        8.5961415855       11.4114163360
  H        30.8833281538       22.6893187026        3.9371059439
  H        31.8870056793       24.5624143202        2.6337062681
  H        35.5326110522       24.1607249302        4.8826058646
  H        34.5123268081       22.2898272088        6.1857780277
  H        33.5748072070       23.5875092418        1.2047163661
  H        40.5986241480       17.1082604639        4.6612400886
  H        32.5096334128       14.1473697262        8.2529205775
  H        29.8722308079       12.5726148620        3.9212586838
  H        28.8540461223       10.6618283168        2.6726218787
  H        25.1896896274       11.1997329337        4.8595961403
  H        26.2301567468       13.0922476379        6.1178403922
  H        27.1687208239       11.6946927507        1.2405547759
  H        33.2998447889       14.1949117353        6.4493520105
  H        33.4082785630       14.4192338934        9.5962379721
  H        32.1158862687       18.5234165985        5.1753630868
  H        30.2220011367       14.1902348593        8.0822755880
  H        16.1182938460        2.9632317851       12.1296234666
  H        14.9531297700        4.8202955739       13.3223688973
  H        17.3662626498        7.6858623623       11.2101608641
  H        18.5149725175        5.8182727964       10.0103404638
  H        16.7534900045        5.7394635436       14.7715162963
  H        44.8281288468       32.1401949101       11.9768055481
  H        45.9373687442       30.3412984251       13.3062735697
  H        43.6818410284       27.3781606894       11.1527550907
  H        42.5991726302       29.1900225223        9.8101189946
  H        44.2301232099       29.4366366812       14.7689098968
  H        14.8510950717        8.5461128702       11.3633259034
  H        44.9000938063       32.2340665755        3.9321234273
  H        46.0249822017       30.4130294166        2.6525696727
  H        43.7629366923       27.4841268640        4.8449172750
  H        42.6451041664       29.3177907347        6.1239463656
  H        44.2683434356       29.4704452486        1.2182089530
  H        34.9980383664       26.6336930794        4.6471163957
  H        36.6051241687       35.1339806835        8.1807660243
  H        16.1437676703        3.0128737753        3.9040472912
  H        14.9741812338        4.8561899477        2.6882909431
  H        17.3958077252        7.7472058437        4.7554316145
  H        18.5428500708        5.8932721222        5.9831267287
  H        16.7645995161        5.7554001972        1.2192810750
  H        36.2785541972       34.4823363210        6.2733246798
  H        36.3805807192       34.2091854205        9.4997574233
  H        40.5785825413       33.2014612023        5.1541990996
  H        17.4710750418        1.9467621036        7.9741236603
  H        29.0580712175       19.2030244275       12.4896424460
  H        28.8825515015       18.9722206434        3.7494606856
  H        32.3748286398       16.3346609391        3.7551209703
  H        31.3472106581       15.5444416186       12.5153136525
  H        28.6343923164       17.7993153856       14.9675203045
  H        29.6861247032       15.3230315490       14.3439015730
  H        31.5847823411       20.3107711757        1.2031309776
  H        32.6301874112       17.2708320409        0.3929675063
  H        28.2348063364       16.6501200766        1.8180380906
  H        30.6301082540       20.6080207629       14.3077451773
  H        18.8543009509        0.8690976217       12.3354628753
  H        40.5278840386       35.2290545834        3.9521093204
  H        42.3237756266       34.4185412647        3.5909592537
  H        22.0880475837        0.6923848338       12.3510670707
  H        11.5970608254       18.7130264902       12.3826025749
  H        52.2647021414       18.4311845024        3.6771488737
  H        49.2552895225       16.4768143996        3.5845039397
  H        10.1509390100       15.7981575759       12.2924689885
  H        50.8499241634       17.6924211319        3.9541939111
  H        10.0465540494       17.3945535377       12.0519712406
  H        20.2158966449        0.0024999653       12.0418546982
  H        39.1835749456       36.1243247315        3.6863957561
 Ni        30.1854458531       17.1726768700        2.9954210806
 Ni        30.3122773978       16.5690950196        0.5104269572
 Ni        30.4741835538       18.8280527383       -0.1664694811
 Ni        30.1822459099       17.3789268041       13.2419826551
  O        10.6500336276       14.3650959187        5.4858536998
  O        12.6132321939       14.6575318211        6.5839119679
  O        49.1481318949       16.8458893967        7.9897630008
  O        50.3502566332       20.9359181546        5.6480664436
  O        48.3485834679       20.5933539889        6.6659075542
  O        11.0516835990       17.0538202422        6.5007480044
  O        50.3209747249       20.8816969658       10.4068701276
  O        48.3467711966       20.5867946497        9.3271741198
  O        49.5438099737       18.2484178138       10.0683453498
  O        12.3590772969       18.6245931590        7.9996359497
  O        48.6932715750       14.1485587307        6.7513382049
  O         8.2099278093       14.2103575593        9.3224997832
  O        10.7354141078       14.5067184413       10.6643013108
  O        12.5718446325       14.5828132462        9.3284663652
  O        22.8449951510        2.0444732717        5.4869306211
  O        21.6056643683        3.5926810411        6.5897836630
  O        42.0578972097       34.1370944904        7.9788412031
  O        37.9813649050       33.1369678815        5.5724952981
  O        39.2169671717       31.5749137285        6.6654854793
  O        20.3083775054        1.0395187547        6.5021029503
  O        38.0245575655       33.1853566169       10.4155241332
  O        39.2181516011       31.5828207416        9.3276999728
  O        40.6522284019       33.7691483945       10.0601128062
  O        18.2558574357        1.3757126714        7.9968368872
  O        44.6221815872       35.1005605506        6.7586853432
  O        24.2053609292        0.0000199803        9.3207806270
  O        22.7531754331        2.0579537302       10.5841480349
  O        21.6249138407        3.5966666628        9.3437263001
  O        27.5039012431       18.7662125874        5.4873615490
  O        26.7301689235       16.9913434714        6.6664477542
  O        30.6675716932       19.3988397956        8.0690990539
  O        33.5924793648       16.2778498800        5.6652450633
  O        34.2765976411       18.1684282116        6.7363551603
  O        29.5751579260       17.0587734255        6.5796423563
  O        33.6081969613       16.3267736874       10.4146463532
  O        34.3048718830       18.2435529142        9.4075279650
  O        31.6579276019       18.3104881401       10.1542494566
  O        30.3201444016       15.1564765976        8.0866539275
  O        28.5530255598       21.0320580266        6.9022993292
  O        28.5147085080       20.9551682269        9.4142715783
  O        27.4598789593       18.6808027241       10.6587865932
  O        26.6938534314       16.9307437519        9.4151308425
  O        13.1478458969       18.6932796320       10.5868601760
  O        13.9192133379       16.9162320440        9.4048154907
  O        50.5963587254       19.3503480220        8.0205129996
  O        47.6837939488       16.3268932343       10.4172350098
  O        46.9520705312       18.1759312506        9.3244184653
  O        11.0698482925       17.0154686136        9.4895479425
  O        47.6761918794       16.3355684776        5.6531039343
  O        46.9285961845       18.2359330007        6.6654068984
  O        49.5687791370       18.3177009001        5.9822712031
  O        10.3187209331       15.1000923198        7.9970792665
  O        52.6707478668       21.0278817790        9.2418139633
  O        12.1468338276       20.8912883079        6.6732973330
  O        13.1065422933       18.6141979140        5.3257901270
  O        13.9574887793       16.9876477429        6.6643579972
  O        29.9941034239       14.4423239783       10.7310652745
  O        28.0895084723       14.6543129003        9.4942515530
  O        32.1371085512       16.8536291068        8.0782239998
  O        30.9636337509       20.9482773802       10.4115997531
  O        32.9452457563       20.6033269356        9.3403391107
  O        29.5688558515       17.0739695383        9.5742068581
  O        30.8511269416       20.8843556526        5.6574739382
  O        32.8707398509       20.5863356093        6.6644890983
  O        31.6804328103       18.2527168881        5.9987710867
  O        28.2929508752       18.6774439435        8.0767881186
  O        32.4924059339       14.2143708779        9.3305822761
  O        32.4048707241       14.2139732425        6.8270487536
  O        29.9062994999       14.4462884690        5.4952335274
  O        28.0075227440       14.6486109582        6.7386748402
  O        17.8892271088        1.9665474314       10.6627758893
  O        18.9562660921        3.5270890651        9.4079610842
  O        39.1685995199       34.1386055145        7.9971723670
  O        43.2801943161       33.0589310509       10.3316352851
  O        42.0343617080       31.5064838984        9.2415716563
  O        20.3176432904        1.0366687661        9.4802242254
  O        43.2760604015       33.1826100922        5.5749186945
  O        42.0052289192       31.5841341573        6.5830198305
  O        40.5789378695       33.7748020851        5.9358572170
  O        22.3673286808        1.3846593595        7.9979140758
  O        36.6728128062       35.0997139159        9.2333642569
  O        16.4456171916        0.0642156478        6.6682686932
  O        17.9364725470        2.0433204405        5.3263985602
  O        18.9190861260        3.5930836115        6.6659864014
  O        29.7762686107       18.7566756323        4.0784090387
  O        29.8233867897       18.8281288779       12.0120509981
  O        31.4630266885       16.2751232427        4.0849808920
  O        31.3055842010       16.4075020186       12.0637891494
  O        32.3593828044       16.3323580940        0.3198200793
  O        28.9394473401       17.2863406548        1.5815162911
  O        30.3711993439       15.9810845830       14.5613889974
  O        30.8816686240       20.5165428545       15.2424466910
  O        31.5627804014       19.3483887765        1.4044471677
  O        29.2407349507       18.4027142662       14.4917570376
  O        39.4568031034       35.2437357329        4.0019629838
  O        19.1424003312        0.0048311908       11.9904460687
  O        41.9696604481       35.1727585627        4.0872729408
  O        21.6915426685       -0.0692391991       11.8958482879
  O        51.3649139511       18.6143158704        4.0053248634
  O        10.7513032462       18.7471447863       11.9049848442
  O        50.0797431692       16.4128084106        4.0917393409
  O         9.5249358562       16.4830115882       11.9912205165
 Zr         9.2973322398       16.0526998194        6.1825515710
 Zr        49.8367969813       16.0066541703        9.7463623727
 Zr        22.0730087624        0.0297767346        6.1890079752
 Zr        42.4607340325       35.1531642691        9.8006253832
 Zr        29.6054188568       19.0866983203        6.2907301285
 Zr        29.5854228596       19.1714042550        9.8717456745
 Zr        11.0381556790       19.0520384166        9.8277637438
 Zr        11.0440326698       19.1549316073        6.2508498615
 Zr        31.3456979294       16.1066561818        9.8714225486
 Zr        31.3938395690       16.0070799091        6.2762435010
 Zr        18.6009365270       -0.0020312283        9.7636887129
 Zr        18.5063466327       -0.0082547180        6.2135707532
 Zr        12.3023731433       16.3235937686        7.9901462343
 Zr        48.6172600806       18.8333970193        8.0104381603
 Zr        20.3152742486        2.4732601456        7.9907356535
 Zr        40.6424984170       32.6863424011        7.9780488765
 Zr        28.3365729798       16.3515634335        8.0830612293
 Zr        32.6305681460       18.8374978154        8.0593105401
  H        32.3514789263       16.1454706155       -0.6443631459
  H        31.0354281715       19.2024267661        2.2348037279
