     570
 i =       24, E =     -4745.6116569532
  C        11.8587662261       14.0534995502        5.7415540104
  C        12.4562691133       12.8905603358        5.0232793977
  C        11.7046206272       12.1717297986        4.0815053404
  C        12.2809958188       11.1095320084        3.3891490580
  C        13.6215279623       10.7396306982        3.6169877525
  C        14.3546446303       11.4431074534        4.5905659334
  C        13.7817599977       12.5080801145        5.2820841792
  C        14.2610570521        9.6489687130        2.8435918939
  C        14.2563646784        9.6568827607        1.4218917812
  C        13.7432144493       10.7590073933        0.6679737783
  C        49.1268392482       21.2332778007        5.8796603057
  C        48.5501076262       22.4011980861        5.1525801074
  C        49.3001380228       23.0685106565        4.1715712471
  C        48.7332089239       24.1076578563        3.4383830618
  C        47.4026818245       24.5093473918        3.6670361588
  C        46.6717442672       23.8604976241        4.6805797929
  C        47.2341887070       22.8155867710        5.4099227921
  C        46.7724228448       25.5870253351        2.8697524276
  C        46.7614468134       25.5574162057        1.4479899454
  C        47.2614159916       24.4423398889        0.7044935483
  C        14.8603053588        8.5705408924        0.7086335747
  C        14.8918329763        8.5970176637        3.5202453972
  C        49.1132903142       21.2034907453       10.1453500332
  C        48.5279427127       22.3648493990       10.8725007774
  C        49.2671262024       23.0255089911       11.8654902641
  C        48.6907852717       24.0600690992       12.5969329615
  C        47.3604089958       24.4569311047       12.3586070787
  C        46.6400626772       23.8121067633       11.3349798752
  C        47.2136256891       22.7762025501       10.6032085845
  C        46.7219271319       25.5318737852       13.1496367003
  C        46.7336635005       25.5282254275       14.5713419710
  C        47.2491344352       24.4290328433       15.3277323538
  C        40.6360421976       17.1183803962       15.3213754772
  C        40.6560635916       17.1593770214       12.5124356553
  C        11.8830259514       14.0864811368       10.2854659862
  C        12.4723095034       12.9106492930       10.9896532631
  C        11.7148324556       12.1775731594       11.9159010799
  C        12.2813955746       11.0951139396       12.5843269932
  C        13.6201510511       10.7212188363       12.3523666506
  C        14.3580473388       11.4366114050       11.3913689572
  C        13.7926497145       12.5177898544       10.7186661259
  C        14.2537546284        9.6244914171       13.1228051686
  C        14.2525047697        9.6444999658       14.5446464601
  C        13.7426590708       10.7534641953       15.2917181116
  C        22.5131147543        3.2440898384        5.7534678470
  C        23.2312721666        4.3476225812        5.0545447949
  C        24.2287051567        4.0637286990        4.1098817655
  C        24.8601778967        5.1005187946        3.4278127596
  C        24.5101696370        6.4436606460        3.6702566305
  C        23.5409029795        6.7190978560        4.6520452417
  C        22.9047260677        5.6840283957        5.3325732912
  C        25.1202218009        7.5476960963        2.8942339771
  C        25.0919403711        7.5408595743        1.4727170087
  C        24.3864448775        6.5436412835        0.7269397747
  C        38.2979142800       31.9284170845        5.8521374908
  C        37.5556111213       30.8408413691        5.1507435517
  C        36.5898992028       31.1498757540        4.1802924406
  C        35.9581804028       30.1334665909        3.4690051716
  C        36.2768349315       28.7816448274        3.7047002445
  C        37.2119714636       28.4800131584        4.7128794629
  C        37.8476472530       29.4954555359        5.4237446935
  C        35.6646765958       27.6951583393        2.9053522056
  C        35.7032052042       27.7110199687        1.4836425324
  C        36.4171717378       28.7110834049        0.7507547029
  C        25.7166700499        8.6097103879        0.7526130208
  C        25.7205369418        8.6209167780        3.5647228098
  C        38.3302328356       31.9611024947       10.1601518636
  C        37.6124648217       30.8892267565       10.9096319840
  C        36.6793869544       31.2009073147       11.9107187754
  C        36.0677054835       30.1854831350       12.6438253195
  C        36.3739448456       28.8313639785       12.4004728277
  C        37.2880408420       28.5295883724       11.3720988612
  C        37.9015200748       29.5415798342       10.6399474941
  C        35.7567329455       27.7345634921       13.1826413097
  C        35.7502417890       27.7311721524       14.6052332431
  C        36.4381799999       28.7217369113       15.3741361376
  C        46.1355940661       26.6208285157       15.2814789299
  C        46.0878946442       26.5801915868       12.4735847481
  C        22.4614229890        3.2559609263       10.2578359069
  C        23.1567884796        4.3641240334       10.9807722680
  C        24.1601898090        4.0768129114       11.9198991657
  C        24.7898208828        5.1059048151       12.6159810886
  C        24.4364059005        6.4523578590       12.3958876827
  C        23.4559955349        6.7329330066       11.4252518429
  C        22.8217825198        5.7040529327       10.7295307880
  C        25.0695868142        7.5492143923       13.1702605907
  C        25.0663740856        7.5410404768       14.5931935099
  C        24.3725849526        6.5446119252       15.3500926318
  C        26.6173244389       17.8602769788        5.7833326286
  C        25.3107414071       17.9118604594        5.0605835748
  C        25.0497193927       18.9141768498        4.1124883502
  C        23.8371672316       18.9358171635        3.4257492956
  C        22.8486212572       17.9596775405        3.6655877943
  C        23.1054145186       16.9809232170        4.6446364009
  C        24.3199047562       16.9528969941        5.3283389266
  C        21.5761471859       17.9464996778        2.8996404706
  C        21.5776530999       17.9287151916        1.4769311703
  C        22.7842158348       17.8103829755        0.7173475545
  C        34.4419958044       17.1900666052        5.9166652895
  C        35.7340374390       17.1388134732        5.1733488191
  C        35.9391726119       16.1686749500        4.1799705993
  C        37.1191189874       16.1558919097        3.4420828103
  C        38.1263009405       17.1110867250        3.6796006127
  C        37.9245134491       18.0613337356        4.6984148247
  C        36.7411624544       18.0803623907        5.4325939250
  C        39.3804678306       17.1185139977        2.8940734638
  C        39.3768402600       17.1330223020        1.4726636901
  C        38.1701908285       17.2559005557        0.7142846612
  C        20.3314930710       17.9443392212        0.7672833407
  C        20.3508796507       17.9453759404        3.5809997279
  C        34.4787906641       17.2440268688       10.1810355360
  C        35.7796673604       17.1698998953       10.9058791151
  C        35.9986825051       16.1770704206       11.8723751974
  C        37.1843255579       16.1572504946       12.6008391112
  C        38.1790891731       17.1291750486       12.3805846593
  C        37.9671857042       18.0972991368       11.3818201440
  C        36.7790738327       18.1223142784       10.6566983413
  C        39.4252847841       17.1440859189       13.1764580482
  C        39.3998609574       17.1465641790       14.5971674444
  C        38.1809915658       17.2604733751       15.3374901355
  C        35.1089151001       26.6553288214       15.3053586171
  C        35.1714637342       26.6630291633       12.4958271919
  C        26.5758975495       17.8290263430       10.3253555973
  C        25.2603541952       17.8756928030       11.0316379337
  C        24.9946931927       18.8853919855       11.9690548632
  C        23.7769640829       18.9129598839       12.6433066281
  C        22.7949631318       17.9310756579       12.4032829967
  C        23.0547939437       16.9461798731       11.4330983247
  C        24.2734291049       16.9163597891       10.7574913531
  C        21.5309149247       17.9148704441       13.1761512170
  C        21.5541823857       17.9105234464       14.5978207605
  C        22.7725266172       17.8012626254       15.3408375431
  C        14.0472791701       17.8292035934       10.2887001728
  C        15.3521888176       17.8875172242       11.0135110125
  C        15.6086186326       18.8917720781       11.9601458826
  C        16.8178201342       18.9141668418       12.6526995584
  C        17.8052846911       17.9351750586       12.4210585475
  C        17.5536433608       16.9551882730       11.4421873356
  C        16.3438513856       16.9282242389       10.7511462739
  C        19.0744181892       17.9200625841       13.1904563531
  C        19.0726145362       17.9197878974       14.6130546175
  C        17.8653554890       17.8203987088       15.3738456019
  C        46.8069527822       17.2190437805       10.1589600510
  C        45.5191180910       17.1588633663       10.9065248677
  C        45.3139571079       16.1800591621       11.8909589583
  C        44.1339968483       16.1636601732       12.6293107393
  C        43.1309966611       17.1264788783       12.4045283648
  C        43.3336771556       18.0853832477       11.3938741771
  C        44.5141040163       18.1054192559       10.6562562047
  C        41.8788528541       17.1381145603       13.1928112410
  C        41.8835126335       17.1313943548       14.6143609090
  C        43.0919757172       17.2210462646       15.3743930901
  C        20.3190443062       17.9342499763       15.3220898222
  C        20.2991264799       17.9000160740       12.5089966856
  C        46.7858426327       17.2301240544        5.8907085304
  C        45.4822497837       17.1215853754        5.1776240938
  C        45.2649536008       16.1218031104        4.2175877501
  C        44.0771359410       16.0935680382        3.4914490408
  C        43.0781366505       17.0619609365        3.7091899001
  C        43.2851221246       18.0305351152        4.7089183834
  C        44.4741599933       18.0653046364        5.4299151745
  C        41.8336387272       17.0853436980        2.9107582401
  C        41.8605766913       17.1030977987        1.4901505266
  C        43.0811177631       17.2052855607        0.7509814271
  C        46.1533791065       26.6372645122        0.7262380501
  C        46.1624036334       26.6561115793        3.5358803997
  C        14.0454537028       17.8319997466        5.7086979577
  C        15.3662356888       17.9074586078        5.0178545686
  C        15.6385765563       18.9241945370        4.0903677412
  C        16.8673044913       18.9632657189        3.4351540161
  C        17.8514105463       17.9848055461        3.6816645055
  C        17.5858166390       16.9968302290        4.6472846919
  C        16.3590718223       16.9572473396        5.3060211534
  C        19.1189785410       17.9627589865        2.9130695189
  C        19.0959161674       17.9408462988        1.4914799035
  C        17.8766909620       17.8298247511        0.7500855896
  C        28.8143184596       14.0944958364       10.3930902235
  C        28.2004075077       12.9204550158       11.0810489346
  C        28.9302799616       12.1657244175       12.0113533471
  C        28.3320352789       11.0898708086       12.6629005999
  C        26.9899179024       10.7433309240       12.4067715878
  C        26.2811724004       11.4780645326       11.4395275537
  C        26.8770116751       12.5547971357       10.7873649707
  C        26.3234699285        9.6609986845       13.1674757102
  C        26.3176204871        9.6838404540       14.5885477208
  C        26.8276924457       10.7936500942       15.3343610801
  C        32.1811238879       21.2428255484       10.1448303316
  C        32.7729337430       22.4092328809       10.8658149199
  C        32.0188776342       23.0914398920       11.8332316077
  C        32.5850665843       24.1327962321       12.5623086111
  C        33.9219061314       24.5201661802       12.3467648556
  C        34.6588627553       23.8564612252       11.3475782784
  C        34.0946362542       22.8102821857       10.6195451940
  C        34.5458703038       25.5963668248       13.1510257047
  C        34.5215688326       25.5717521189       14.5730514248
  C        34.0009258100       24.4603609343       15.3085984663
  C        25.7077800762        8.6062482374       15.3076455097
  C        25.6831664379        8.6126239009       12.4940333305
  C        32.0790989324       21.2027408366        5.8760221446
  C        32.6440682023       22.3688081877        5.1353518258
  C        31.9047161816       23.0224390484        4.1375129526
  C        32.4743994452       24.0636614772        3.4066039434
  C        33.7971303390       24.4817837437        3.6543629604
  C        34.5170876709       23.8426773696        4.6823424094
  C        33.9528910794       22.7977740307        5.4083581935
  C        34.4366178035       25.5672235287        2.8734299622
  C        34.4636613607       25.5578203923        1.4511048050
  C        33.9716252277       24.4542952865        0.6852637698
  C        40.6240544786       17.1076132371        0.7655186196
  C        40.6027005128       17.1115017941        3.5749380361
  C        28.7507162314       14.0680967726        5.8184429699
  C        28.1446116158       12.9179709644        5.0823268461
  C        28.8832213750       12.2223664474        4.1129454287
  C        28.3063335932       11.1636812125        3.4153200625
  C        26.9741981316       10.7741980255        3.6610735678
  C        26.2528744414       11.4570529162        4.6583281481
  C        26.8284316276       12.5158701797        5.3581886834
  C        26.3342556236        9.6827667943        2.8875426710
  C        26.3241539210        9.6954695063        1.4655213295
  C        26.8282661590       10.8008233415        0.7104539026
  C        18.1354500684        3.1809055754       10.3171134844
  C        17.4061337436        4.2781690651       11.0157410587
  C        16.3903958187        3.9997857819       11.9432254990
  C        15.7426485666        5.0397499583       12.6067338654
  C        16.0945606746        6.3834729692       12.3670825255
  C        17.0839470172        6.6530234215       11.4033323248
  C        17.7330605575        5.6156939774       10.7382719749
  C        15.4702138554        7.4911636479       13.1301292610
  C        15.4855008838        7.4905000186       14.5518450381
  C        16.1870618028        6.4968931066       15.3050235515
  C        42.9457871872       31.8595187749       10.0728373706
  C        43.6461536365       30.7718248458       10.8167929051
  C        44.5916517144       31.0931584603       11.8028900550
  C        45.1973692210       30.0876170676       12.5505526517
  C        44.8709724358       28.7345485885       12.3356772493
  C        43.9451680611       28.4201966983       11.3224489920
  C        43.3363425829       29.4253367782       10.5744048684
  C        45.4886125128       27.6552710431       13.1388618818
  C        45.4928015999       27.6809058492       14.5605589287
  C        44.8056437659       28.6889030500       15.3071858840
  C        14.8565287992        8.5629986642       15.2641988183
  C        14.8749390841        8.5629283052       12.4515304846
  C        42.9463890161       31.9615772894        5.8089778895
  C        43.6915940282       30.8854363825        5.0954669460
  C        44.6562883292       31.1913519188        4.1232662978
  C        45.2778128516       30.1717695367        3.4055324768
  C        44.9539583031       28.8214549860        3.6430794678
  C        44.0203290599       28.5237800204        4.6537154891
  C        43.3920547491       29.5405420887        5.3658979707
  C        45.5630439036       27.7240714846        2.8578292194
  C        45.5333394269       27.7173790548        1.4365311432
  C        44.8269417500       28.7075559645        0.6835800589
  C        35.0820505948       26.6468198920        0.7508070428
  C        35.0489983355       26.6229104313        3.5611682060
  C        18.1486618285        3.2469556775        5.7066431683
  C        17.4300517865        4.3438232771        4.9973690603
  C        16.4147679697        4.0525440536        4.0738849010
  C        15.7664599745        5.0831675628        3.3984757101
  C        16.1211829310        6.4283968580        3.6211273650
  C        17.1126437128        6.7117901688        4.5782941168
  C        17.7603193971        5.6828835673        5.2580806726
  C        15.4906715163        7.5240858004        2.8486673314
  C        15.4965463140        7.5074533508        1.4275299432
  C        16.1932969587        6.5057368641        0.6808388301
  H        10.6725213248       12.4659254104        3.9044212501
  H        11.6947354936       10.5511010451        2.6625485931
  H        15.3916473629       11.1684453986        4.7723682609
  H        14.3512076764       13.0712433452        6.0175795351
  H        13.3762255863       11.6311480538        1.2012736652
  H        50.3228346636       22.7484510543        3.9867997325
  H        49.3196870550       24.6229103624        2.6807907017
  H        45.6422651728       24.1612961923        4.8637804892
  H        46.6631672051       22.2903786211        6.1720307706
  H        47.6299591009       23.5759596196        1.2461696317
  H        14.8721912885        8.5882684516        4.6085529582
  H        50.2871434703       22.7026085271       12.0604695044
  H        49.2691481192       24.5754819468       13.3604876630
  H        45.6107026017       24.1094369413       11.1458157528
  H        46.6528364312       22.2541457470        9.8315521099
  H        47.6079093498       23.5519036326       14.7968498539
  H        40.6627970133       17.1325647759       11.4244962913
  H        48.6872102326       14.0948599559        7.8000839855
  H        10.6814035118       12.4667415860       12.0933930194
  H        11.6896301866       10.5247969371       13.2971069840
  H        15.3934266772       11.1586071014       11.2053141201
  H        14.3649733503       13.0870574826        9.9900422195
  H        13.3758583762       11.6220865993       14.7530769459
  H        47.9302407120       14.2184120171        9.7107102304
  H        47.7801540584       14.3739935428        6.4954237760
  H        49.0846190025       18.5526668620       10.8674644904
  H        10.4162082099       14.1342677599        7.9986469329
  H        24.4866045756        3.0241379799        3.9204349850
  H        25.6336211060        4.8798430671        2.6953356747
  H        23.2632454200        7.7531445218        4.8456270279
  H        22.1342571298        5.8876102596        6.0722559540
  H        23.8246383564        5.7875804729        1.2676503541
  H        36.3593010640       32.1944807855        3.9850443299
  H        35.2102240517       30.3779978209        2.7179284006
  H        37.4660622095       27.4392972184        4.9032920750
  H        38.5950979022       29.2689343479        6.1804828089
  H        36.9798605687       29.4599623382        1.3004144244
  H        25.7552997415        8.6038625141        4.6525488888
  H        36.4527285700       32.2456772946       12.1110193634
  H        35.3375154642       30.4344271735       13.4107144798
  H        37.5384726091       27.4888566152       11.1772958846
  H        38.6277376355       29.3118245481        9.8640008912
  H        37.0178468098       29.4785056069       14.8533158705
  H        46.1092868066       26.5875954884       11.3855485008
  H        44.6681978229       35.1161236780        7.8139951038
  H        24.4375345727        3.0382759270       12.0858248136
  H        25.5715480548        4.8756570910       13.3367219729
  H        23.1712687486        7.7677333489       11.2459891791
  H        22.0491957482        5.9183250240        9.9946633508
  H        23.7995522447        5.7898901161       14.8192895658
  H        44.9535197038       34.3901692818        9.6950659608
  H        44.9015315929       34.2066598643        6.4907231806
  H        40.6660945265       33.2091675632       10.8531987257
  H        23.1505535150        1.9576525997        8.0054327349
  H        25.8074890803       19.6725681942        3.9289532732
  H        23.6406104073       19.7186726098        2.6962958780
  H        22.3540774500       16.2182257407        4.8390475666
  H        24.5287990615       16.1827113456        6.0672176497
  H        23.7255450154       17.6951178524        1.2468396753
  H        35.1574722453       15.4357847994        3.9956983194
  H        37.2776920818       15.3967017599        2.6793101601
  H        38.6948740756       18.8066900501        4.8851044259
  H        36.5680241582       18.8284396430        6.2027529462
  H        37.2305664569       17.3782561987        1.2453249672
  H        20.3565803584       17.9826526308        4.6689691491
  H        35.2212397708       15.4375259937       12.0481624959
  H        37.3543407289       15.3853014134       13.3481806132
  H        38.7302058495       18.8533309792       11.2084975006
  H        36.5925305744       18.8863202613        9.9057314225
  H        37.2496744769       17.3854606321       14.7925342489
  H        35.1560688353       26.6862507319       11.4078158634
  H        28.5084660906       21.0859626110        7.9686035702
  H        25.7549908198       19.6418052672       12.1502935586
  H        23.5711369455       19.7004359888       13.3651371959
  H        22.3049694576       16.1812134644       11.2418185123
  H        24.4895276110       16.1443478892       10.0228169499
  H        23.7048731445       17.6793888705       14.7976873570
  H        29.0054995109       21.7189708614        9.7625759404
  H        29.1411526657       21.7521464926        6.6108231466
  H        32.1415172936       18.5524017378       10.9293627084
  H        27.4091535466       19.0810413529        8.0869044415
  H        14.8497570302       19.6504910560       12.1379581028
  H        17.0125297701       19.6993561790       13.3800974860
  H        18.3052854784       16.1912624120       11.2539580685
  H        16.1384590731       16.1581863007       10.0113039075
  H        16.9232493334       17.7032710388       14.8462035702
  H        46.0960489882       15.4460525356       12.0700876155
  H        43.9738126893       15.3969574698       13.3841258028
  H        42.5665496885       18.8364778371       11.2173912111
  H        44.6882877661       18.8594052376        9.8922428273
  H        44.0343243180       17.3351685178       14.8462590693
  H        20.2936595719       17.9266548857       11.4207674315
  H        46.0428740203       15.3824162905        4.0414770483
  H        43.9107326223       15.3186912012        2.7462998846
  H        42.5178316496       18.7820067270        4.8829457416
  H        44.6566970077       18.8323105779        6.1785156142
  H        44.0151822963       17.3060955927        1.2960117269
  H        46.1992017105       26.6826517082        4.6233270755
  H        52.7411683342       21.0626477531        8.1946820016
  H        14.8774468763       19.6775936065        3.8997420495
  H        17.0776361193       19.7547901483        2.7190760706
  H        18.3369629056       16.2349174766        4.8452236328
  H        16.1387565262       16.1816736334        6.0355137456
  H        16.9431093836       17.7199294313        1.2936153354
  H        52.3223886371       21.6732954201        6.2943583928
  H        52.0131695089       21.7019857467        9.4956812064
  H        49.0675154324       18.6077756170        5.2041457360
  H        13.2476149397       19.0163736683        7.9773241554
  H        29.9656040480       12.4356471707       12.2073619966
  H        28.8995352150       10.5038627013       13.3826870960
  H        25.2441056191       11.2204081525       11.2344518489
  H        26.3275298294       13.1426139780       10.0561729972
  H        27.1924805128       11.6614814519       14.7933426812
  H        30.9922686835       22.7799747180       12.0097950776
  H        31.9941652891       24.6601761828       13.3079698839
  H        35.6936606553       24.1452187757       11.1749515426
  H        34.6699140920       22.2734163678        9.8687409966
  H        33.6485209596       23.5908120887       14.7612154060
  H        25.7082904060        8.5962338966       11.4058478085
  H        30.8866937632       22.6945452826        3.9393533441
  H        31.8936333000       24.5694228934        2.6382774282
  H        35.5407857725       24.1531197589        4.8810490255
  H        34.5165071985       22.2833590567        6.1829938618
  H        33.5967888750       23.5796759478        1.2093679807
  H        40.5945738210       17.0727916995        4.6625434054
  H        32.5070154440       14.1460342087        8.2433005589
  H        29.9107035062       12.5252651895        3.9249165197
  H        28.8873708212       10.6202094072        2.6733605499
  H        25.2222137107       11.1692395760        4.8554244575
  H        26.2676990256       13.0582053605        6.1157842147
  H        27.1919578190       11.6745201620        1.2433823038
  H        33.3106135880       14.2363012423        6.4716669961
  H        33.4114564312       14.4045508742        9.5926776902
  H        32.1278311396       18.4877490058        5.1658573024
  H        30.2252440321       14.1907654970        8.0739817700
  H        16.1183400255        2.9632730921       12.1295940735
  H        14.9531777229        4.8203428779       13.3223636923
  H        17.3663768545        7.6859038127       11.2102413033
  H        18.5150944349        5.8183529847       10.0104199397
  H        16.7536068838        5.7395435721       14.7715231371
  H        44.8278947439       32.1402473537       11.9770897464
  H        45.9372103338       30.3413796258       13.3065188434
  H        43.6824740001       27.3781277624       11.1523284175
  H        42.5997645902       29.1899829660        9.8097049425
  H        44.2302119441       29.4366122956       14.7688814481
  H        14.8511824183        8.5461392104       11.3633100189
  H        44.8998935419       32.2340330765        3.9318931380
  H        46.0247835749       30.4129972453        2.6523592736
  H        43.7632411094       27.4840615607        4.8451709092
  H        42.6454247767       29.3177312773        6.1242129533
  H        44.2683694713       29.4703937131        1.2181696203
  H        35.0021058484       26.6342888136        4.6485098490
  H        36.6051817480       35.1340447299        8.1806186651
  H        16.1436412753        3.0129663021        3.9042307668
  H        14.9740798579        4.8563152936        2.6884536944
  H        17.3962285947        7.7472515846        4.7551005293
  H        18.5432811064        5.8933354327        5.9827539003
  H        16.7647285316        5.7555028455        1.2192901425
  H        36.2788726248       34.4821747459        6.2733475096
  H        36.3809837685       34.2090085259        9.4995337278
  H        40.5788850436       33.2016575928        5.1541168950
  H        17.4709886797        1.9470864704        7.9740916214
  H        29.1647108138       19.3476681409       12.5008396817
  H        28.8673712524       18.4686514549        3.8534385957
  H        31.7581548790       15.7810749307        3.5134620938
  H        31.4622068905       15.6640704014       12.5085218275
  H        28.2184519574       17.7944225469       14.4959564415
  H        29.6198575335       15.4570662241       14.4013426792
  H        30.1012262025       19.8692731712        2.0283197419
  H        32.6205224594       17.5921217698        1.3624115538
  H        18.8530306604        0.8689771231       12.3351437533
  H        40.5281120319       35.2289686198        3.9521301706
  H        42.3235514074       34.4183460846        3.5908374287
  H        22.0875786825        0.6917481630       12.3516471898
  H        11.5968121517       18.7130397639       12.3826824486
  H        52.2647393390       18.4312708035        3.6770572880
  H        49.2552802586       16.4771662740        3.5846095406
  H        10.1501613100       15.7982037576       12.2929079700
  H        50.8500114821       17.6923433965        3.9542752129
  H        10.0461127324       17.3944498367       12.0519805598
  H        20.2141534466        0.0020797960       12.0420868707
  H        39.1837119239       36.1242899830        3.6862819802
 Ni        30.9031150840       17.8371690307        2.9109550773
 Ni        31.0309418574       16.5475228365        0.0015020738
 Ni        29.8413068993       18.6985466940       -0.0724685567
 Ni        30.1831460297       17.4256004247       13.1563068848
  O        10.6499562416       14.3650650307        5.4858338436
  O        12.6131871843       14.6575311346        6.5838948909
  O        49.1481206806       16.8459304583        7.9897323446
  O        50.3502857730       20.9358863970        5.6480838241
  O        48.3485775802       20.5933283827        6.6658891426
  O        11.0518131677       17.0538490128        6.5007323124
  O        50.3210970104       20.8816510284       10.4068316087
  O        48.3467886814       20.5867702580        9.3271626443
  O        49.5442468476       18.2484710129       10.0682086245
  O        12.3591491673       18.6246112461        7.9997165904
  O        48.6932913749       14.1485090056        6.7513320298
  O         8.2099657261       14.2102904471        9.3224765093
  O        10.7354298007       14.5067298791       10.6643270584
  O        12.5718654376       14.5828354858        9.3284923101
  O        22.8445500494        2.0426509777        5.4872673268
  O        21.6060815413        3.5925644839        6.5891577689
  O        42.0579682627       34.1371857747        7.9789942375
  O        37.9813257859       33.1372218383        5.5726548099
  O        39.2171771748       31.5751578909        6.6658107467
  O        20.3083889097        1.0395472876        6.5021161316
  O        38.0245675941       33.1853921220       10.4155010710
  O        39.2183624061       31.5830088987        9.3275033349
  O        40.6522116600       33.7693011498       10.0601848253
  O        18.2556909349        1.3759362406        7.9967817116
  O        44.6222276658       35.1005034211        6.7587804686
  O        24.2053630389        0.0000091839        9.3208036544
  O        22.7530641246        2.0577350597       10.5838855982
  O        21.6247284110        3.5963931998        9.3432044389
  O        27.5006088859       18.7495082559        5.4902497038
  O        26.7612543072       16.9383812545        6.6543428873
  O        30.6700278776       19.4024413668        8.0592999869
  O        33.5867038669       16.2730250112        5.6663694355
  O        34.2779683600       18.1655846166        6.7310730909
  O        29.5750015886       17.0610066991        6.5826873746
  O        33.6187818893       16.3259959227       10.4097220299
  O        34.3098060080       18.2439660532        9.4040775352
  O        31.7085787937       18.3155680519       10.0921044999
  O        30.3229298585       15.1570012353        8.0831794265
  O        28.5520747058       21.0333313432        6.9011975067
  O        28.5147970635       20.9554196181        9.4132919660
  O        27.4626754861       18.6795271730       10.6590363381
  O        26.6954770201       16.9297363859        9.4127531234
  O        13.1490763908       18.6929274452       10.5874709500
  O        13.9197902500       16.9162843284        9.4052544648
  O        50.5963613624       19.3502933673        8.0204723551
  O        47.6845034225       16.3266145662       10.4169577640
  O        46.9523291209       18.1758559484        9.3244143030
  O        11.0700686424       17.0154082601        9.4896588523
  O        47.6768010245       16.3353725833        5.6534802350
  O        46.9274968872       18.2357112420        6.6647092706
  O        49.5687892090       18.3177325294        5.9822725810
  O        10.3187294441       15.1001049395        7.9970677913
  O        52.6707791304       21.0278855584        9.2418245509
  O        12.1468491943       20.8912077828        6.6732352019
  O        13.1079337694       18.6137420207        5.3256262299
  O        13.9574151689       16.9871641581        6.6652145005
  O        29.9973214909       14.4464734456       10.7303386979
  O        28.0908108180       14.6537479429        9.4955552612
  O        32.1394774332       16.8528269302        8.0674153221
  O        30.9660212053       20.9515484230       10.4078241982
  O        32.9473549781       20.6066637695        9.3363969297
  O        29.5721368742       17.0759310171        9.5751639677
  O        30.8527477284       20.8853257249        5.6561021241
  O        32.8711070863       20.5877944844        6.6637925346
  O        31.6836637868       18.2546108236        5.9997824212
  O        28.2919145764       18.6766421461        8.0740922945
  O        32.4929470058       14.2130221477        9.3264549844
  O        32.4047907026       14.2162583901        6.8238706977
  O        29.9231823344       14.4412963324        5.4903173243
  O        28.0407386573       14.5897283705        6.7511391847
  O        17.8892278960        1.9665891504       10.6627972932
  O        18.9562737080        3.5271209884        9.4079543214
  O        39.1685859404       34.1386363430        7.9971347736
  O        43.2802063812       33.0589293666       10.3316674936
  O        42.0343951099       31.5064598691        9.2416046187
  O        20.3176048330        1.0367380114        9.4801579894
  O        43.2760821132       33.1825523370        5.5748992090
  O        42.0052243678       31.5841023409        6.5830014283
  O        40.5789366112       33.7748418014        5.9358773395
  O        22.3672847472        1.3846353498        7.9979723659
  O        36.6727749920       35.0997149095        9.2332913134
  O        16.4456094143        0.0642447283        6.6682878143
  O        17.9365008936        2.0433906588        5.3263831552
  O        18.9191414618        3.5931204995        6.6659593637
  O        29.7673436348       18.7643811810        4.0933664089
  O        29.8715056289       18.9053762335       11.9909598227
  O        31.2980586791       16.4169653373        4.0894291378
  O        31.3520994467       16.4861593026       11.9931681571
  O        31.9414713025       16.9247092247        1.5833921017
  O        30.4555315511       15.9565776443       14.3448800270
  O        30.6398855105       19.1908393903        1.5817155086
  O        29.0098854674       18.3313021979       14.3095821765
  O        39.4568485319       35.2437087340        4.0019582280
  O        19.1409182992        0.0044429307       11.9905604558
  O        41.9696158883       35.1726507758        4.0871429792
  O        21.6911132046       -0.0695717937       11.8958799323
  O        51.3649893432       18.6143079056        4.0054064988
  O        10.7511345559       18.7471402003       11.9049071222
  O        50.0798112696       16.4127977405        4.0916921375
  O         9.5243725326       16.4830619359       11.9912338198
 Zr         9.2972268618       16.0526915535        6.1825148149
 Zr        49.8367903588       16.0065672830        9.7462963052
 Zr        22.0731890993        0.0297454472        6.1890119693
 Zr        42.4607818451       35.1534587325        9.8009424791
 Zr        29.6095304715       19.0957633729        6.2922697593
 Zr        29.5966776670       19.1753903395        9.8485040808
 Zr        11.0383667593       19.0518887395        9.8277465518
 Zr        11.0440469116       19.1548167808        6.2509542083
 Zr        31.3626411705       16.1079064321        9.8454437021
 Zr        31.3841763382       16.0209299366        6.2706591290
 Zr        18.6010182661       -0.0016427547        9.7633433423
 Zr        18.5065758889       -0.0078296838        6.2135749055
 Zr        12.3024131970       16.3235771094        7.9903316328
 Zr        48.6169839443       18.8332859466        8.0101687512
 Zr        20.3154581397        2.4735629595        7.9905610771
 Zr        40.6429730882       32.6867251837        7.9781036124
 Zr        28.3449679833       16.3360071426        8.0851061037
 Zr        32.6462022694       18.8403638277        8.0482561313
  H        28.8053544261       19.6962713314        0.1984928415
  H        29.7094485639       17.1579809352        0.4721992253
