     570
 i =       44, E =     -4745.6117419407
  C        11.8587683207       14.0535046858        5.7415506623
  C        12.4562779490       12.8905786667        5.0232618048
  C        11.7046285856       12.1717496474        4.0814875308
  C        12.2809995001       11.1095434750        3.3891401633
  C        13.6215302857       10.7396390728        3.6169821437
  C        14.3546473847       11.4431165315        4.5905585459
  C        13.7817673647       12.5080968487        5.2820659049
  C        14.2610564803        9.6489705593        2.8435937172
  C        14.2563597955        9.6568815647        1.4218930856
  C        13.7432151641       10.7590072899        0.6679728691
  C        49.1268380222       21.2332656751        5.8796459742
  C        48.5501111909       22.4011979731        5.1525806058
  C        49.3001347698       23.0685043194        4.1715634596
  C        48.7332080743       24.1076554855        3.4383805934
  C        47.4026837128       24.5093496537        3.6670374617
  C        46.6717477312       23.8605006824        4.6805827851
  C        47.2341916434       22.8155859347        5.4099211692
  C        46.7724276237       25.5870308848        2.8697561366
  C        46.7614488575       25.5574187632        1.4479937500
  C        47.2614141257       24.4423411646        0.7044978413
  C        14.8603050200        8.5705417630        0.7086358906
  C        14.8918251910        8.5970161432        3.5202479062
  C        49.1132850704       21.2034847473       10.1453574716
  C        48.5279463159       22.3648511951       10.8725012513
  C        49.2671275572       23.0255039467       11.8654961885
  C        48.6907902335       24.0600682453       12.5969343360
  C        47.3604122109       24.4569270447       12.3586158218
  C        46.6400648031       23.8121018900       11.3349899262
  C        47.2136243865       22.7761938701       10.6032216881
  C        46.7219324644       25.5318740946       13.1496411772
  C        46.7336661012       25.5282255586       14.5713458303
  C        47.2491360727       24.4290340878       15.3277374318
  C        40.6360487976       17.1183817754       15.3213789345
  C        40.6560597654       17.1593943116       12.5124477681
  C        11.8830304140       14.0864805373       10.2854679874
  C        12.4723048324       12.9106373981       10.9896422928
  C        11.7148297008       12.1775666172       11.9158949108
  C        12.2813917611       11.0951037299       12.5843170599
  C        13.6201532079       10.7212203796       12.3523697044
  C        14.3580463578       11.4366101462       11.3913680172
  C        13.7926509282       12.5177918500       10.7186711694
  C        14.2537584777        9.6244912229       13.1228058067
  C        14.2525055139        9.6444991734       14.5446470019
  C        13.7426609737       10.7534638865       15.2917175538
  C        22.5131099247        3.2440882900        5.7534567871
  C        23.2313231147        4.3476143418        5.0545811864
  C        24.2287481160        4.0637012079        4.1099146475
  C        24.8602370563        5.1004778822        3.4278401947
  C        24.5102238532        6.4436228731        3.6702564434
  C        23.5409595293        6.7190805817        4.6520412678
  C        22.9047658045        5.6840241858        5.3325720572
  C        25.1202922184        7.5476453205        2.8942310896
  C        25.0920243085        7.5407990012        1.4727140933
  C        24.3865332416        6.5435787511        0.7269362475
  C        38.2979010045       31.9284204436        5.8521468930
  C        37.5556089736       30.8408522083        5.1507370511
  C        36.5898718744       31.1498953627        4.1803162066
  C        35.9581583658       30.1334949403        3.4690148805
  C        36.2768175216       28.7816734179        3.7046972452
  C        37.2119697180       28.4800316612        4.7128574380
  C        37.8476414241       29.4954670698        5.4237324423
  C        35.6646683021       27.6951925778        2.9053401979
  C        35.7031771447       27.7110633270        1.4836329578
  C        36.4171299522       28.7111299723        0.7507406252
  C        25.7167693177        8.6096395079        0.7526078142
  C        25.7205975282        8.6208706363        3.5647196731
  C        38.3302368524       31.9611037900       10.1601523287
  C        37.6124503237       30.8892309778       10.9096192083
  C        36.6793661824       31.2009143751       11.9106983538
  C        36.0676753778       30.1854946617       12.6438003967
  C        36.3739275421       28.8313775585       12.4004673588
  C        37.2880294831       28.5295957796       11.3721024595
  C        37.9015222273       29.5415834639       10.6399590996
  C        35.7567131915       27.7345864251       13.1826390711
  C        35.7502086619       27.7312079241       14.6052276954
  C        36.4381419503       28.7217749373       15.3741249995
  C        46.1355997580       26.6208302461       15.2814815761
  C        46.0878999741       26.5801905938       12.4735875127
  C        22.4614189876        3.2559572140       10.2578403842
  C        23.1568070718        4.3641101971       10.9807680314
  C        24.1602196879        4.0767797724       11.9198769474
  C        24.7898708433        5.1058582734       12.6159584649
  C        24.4364619883        6.4523136884       12.3958856876
  C        23.4560343465        6.7329082359       11.4252759437
  C        22.8218006404        5.7040431068       10.7295534130
  C        25.0696637827        7.5491529906       13.1702585491
  C        25.0664685167        7.5409694483       14.5931889965
  C        24.3726715156        6.5445505663       15.3500895192
  C        26.6171208878       17.8602340969        5.7834892039
  C        25.3105595662       17.9117742195        5.0607098346
  C        25.0495949984       18.9141249267        4.1126364344
  C        23.8370900856       18.9358036150        3.4258241637
  C        22.8485440764       17.9596454192        3.6655907576
  C        23.1052833906       16.9808402177        4.6446023268
  C        24.3197433807       16.9527827086        5.3283574700
  C        21.5760926731       17.9465023205        2.8996247916
  C        21.5776182551       17.9287537394        1.4769184294
  C        22.7841901610       17.8104334152        0.7173429677
  C        34.4420058302       17.1900515016        5.9167061253
  C        35.7340801482       17.1387459491        5.1734028162
  C        35.9392120236       16.1686070109        4.1800205046
  C        37.1191476018       16.1558406713        3.4421067200
  C        38.1263241916       17.1110432099        3.6796190998
  C        37.9245315827       18.0613003762        4.6984201728
  C        36.7411935451       18.0803152533        5.4326173224
  C        39.3804884098       17.1184638195        2.8940855780
  C        39.3768523730       17.1330022084        1.4726759926
  C        38.1701941592       17.2558795869        0.7143051812
  C        20.3314630709       17.9443762158        0.7672685114
  C        20.3508305804       17.9453875767        3.5809852880
  C        34.4788885200       17.2440317802       10.1809507152
  C        35.7797460137       17.1699594352       10.9058432183
  C        35.9987069066       16.1771322706       11.8723509574
  C        37.1843216638       16.1573116401       12.6008590561
  C        38.1790973548       17.1292248618       12.3806037966
  C        37.9672290192       18.0973611249       11.3818449661
  C        36.7791439172       18.1223756082       10.6566827182
  C        39.4252867966       17.1441148412       13.1764757669
  C        39.3998646069       17.1465699482       14.5971824574
  C        38.1809933814       17.2604733559       15.3375090826
  C        35.1088893309       26.6553653242       15.3053566541
  C        35.1714531229       26.6630509540       12.4958276770
  C        26.5758678528       17.8290163808       10.3253374265
  C        25.2603172411       17.8756779597       11.0316266987
  C        24.9946594860       18.8853989503       11.9690233105
  C        23.7769371348       18.9129589451       12.6432865811
  C        22.7949433460       17.9310705329       12.4032721347
  C        23.0547832333       16.9461413482       11.4331293557
  C        24.2734029114       16.9163303946       10.7574981480
  C        21.5309024553       17.9148829002       13.1761448726
  C        21.5541652680       17.9105509039       14.5978122073
  C        22.7725097739       17.8013066140       15.3408326882
  C        14.0472758277       17.8292026117       10.2886993371
  C        15.3521739799       17.8875127734       11.0135285317
  C        15.6085947279       18.8917702484       11.9601633736
  C        16.8178015085       18.9141823423       12.6527068649
  C        17.8052784371       17.9352078918       12.4210469007
  C        17.5536452906       16.9552196939       11.4421780750
  C        16.3438498746       16.9282398692       10.7511477042
  C        19.0744096616       17.9201060869       13.1904413827
  C        19.0725979849       17.9198235615       14.6130376267
  C        17.8653360112       17.8204317302       15.3738233408
  C        46.8069456645       17.2190454443       10.1589591144
  C        45.5190958176       17.1588496997       10.9064993065
  C        45.3139325063       16.1800537671       11.8909401967
  C        44.1339704012       16.1636570574       12.6292867231
  C        43.1309821823       17.1264874071       12.4045205063
  C        43.3336585854       18.0853791421       11.3938551915
  C        44.5140869035       18.1054136055       10.6562398790
  C        41.8788481512       17.1381278875       13.1928117485
  C        41.8835130180       17.1314002515       14.6143574380
  C        43.0919720773       17.2210444536       15.3743857824
  C        20.3190234524       17.9342861694       15.3220766109
  C        20.2991187109       17.9000362756       12.5089883112
  C        46.7858480129       17.2301306570        5.8906978951
  C        45.4822682308       17.1216071465        5.1775931260
  C        45.2649775915       16.1218216503        4.2175607416
  C        44.0771617940       16.0935768464        3.4914226537
  C        43.0781520505       17.0619539404        3.7091774839
  C        43.2851384201       18.0305460197        4.7088870966
  C        44.4741771108       18.0653238552        5.4298797189
  C        41.8336538537       17.0853193747        2.9107507654
  C        41.8605863726       17.1030853058        1.4901451855
  C        43.0811223715       17.2052847196        0.7509711209
  C        46.1533761564       26.6372628751        0.7262405014
  C        46.1624077227       26.6561177277        3.5358826843
  C        14.0454499194       17.8319997342        5.7087018025
  C        15.3662311470       17.9074723244        5.0178638435
  C        15.6385546367       18.9242066411        4.0903701229
  C        16.8672767643       18.9632804956        3.4351478521
  C        17.8513781056       17.9848159228        3.6816469242
  C        17.5858071857       16.9968493836        4.6472806002
  C        16.3590713538       16.9572663200        5.3060290851
  C        19.1189377818       17.9627773315        2.9130510103
  C        19.0958837173       17.9408746682        1.4914623223
  C        17.8766637654       17.8298548979        0.7500628668
  C        28.8142738468       14.0944610613       10.3930973983
  C        28.2003789875       12.9203986694       11.0810327248
  C        28.9303062872       12.1656703650       12.0112987970
  C        28.3320929157       11.0898066415       12.6628549636
  C        26.9899719120       10.7432622084       12.4067570453
  C        26.2811701999       11.4780143752       11.4395711162
  C        26.8769753220       12.5547512863       10.7873893855
  C        26.3235546647        9.6609250588       13.1674710401
  C        26.3177323427        9.6837577967       14.5885410845
  C        26.8278184951       10.7935672568       15.3343477286
  C        32.1811280745       21.2428845947       10.1448087635
  C        32.7729627104       22.4092572729       10.8658373111
  C        32.0188852185       23.0914683273       11.8332286962
  C        32.5850706701       24.1328117918       12.5623246240
  C        33.9219128586       24.5201787635       12.3467789712
  C        34.6588890047       23.8564629500       11.3476146883
  C        34.0946643261       22.8102938353       10.6195696555
  C        34.5458599038       25.5963930167       13.1510306605
  C        34.5215428378       25.5717876142       14.5730548144
  C        34.0008895705       24.4603989521       15.3086043843
  C        25.7078772133        8.6061744261       15.3076405185
  C        25.6832456509        8.6125560468       12.4940315060
  C        32.0791170997       21.2028126538        5.8761324282
  C        32.6440984320       22.3689144293        5.1354697689
  C        31.9047341811       23.0225131595        4.1376105303
  C        32.4744162198       24.0637035257        3.4066461677
  C        33.7971578429       24.4818155284        3.6543758449
  C        34.5171373321       23.8427178992        4.6823408900
  C        33.9529411953       22.7978494932        5.4084087392
  C        34.4366254822       25.5672548812        2.8734306582
  C        34.4636434698       25.5578592534        1.4511070510
  C        33.9715871297       24.4543366692        0.6852709218
  C        40.6240631172       17.1075989225        0.7655199977
  C        40.6027238578       17.1114644537        3.5749427247
  C        28.7506760364       14.0680853277        5.8184935434
  C        28.1445856530       12.9179389723        5.0823739383
  C        28.8832329611       12.2223408699        4.1130193308
  C        28.3063757586       11.1636582829        3.4153579697
  C        26.9742328283       10.7741645484        3.6610766044
  C        26.2528696631       11.4570216896        4.6583050659
  C        26.8284041211       12.5158382726        5.3581852833
  C        26.3343151195        9.6827213838        2.8875370234
  C        26.3242428049        9.6954070710        1.4655141024
  C        26.8283797101       10.8007500493        0.7104413515
  C        18.1354555918        3.1809090779       10.3171168083
  C        17.4061311624        4.2781705960       11.0157380928
  C        16.3904035714        3.9997875535       11.9432335303
  C        15.7426613107        5.0397534641       12.6067439708
  C        16.0945687087        6.3834762386       12.3670853445
  C        17.0839487411        6.6530234976       11.4033288164
  C        17.7330570000        5.6156940084       10.7382657162
  C        15.4702234549        7.4911673043       13.1301325795
  C        15.4855069231        7.4905032881       14.5518479744
  C        16.1870648889        6.4968960785       15.3050279132
  C        42.9457911923       31.8595169911       10.0728343816
  C        43.6461495177       30.7718235312       10.8167981114
  C        44.5916483512       31.0931565657       11.8028939875
  C        45.1973614166       30.0876157618       12.5505600721
  C        44.8709771641       28.7345459686       12.3356751926
  C        43.9451724833       28.4201954187       11.3224467688
  C        43.3363490585       29.4253352272       10.5744008702
  C        45.4886143851       27.6552689103       13.1388632582
  C        45.4927988035       27.6809015327       14.5605603113
  C        44.8056422735       28.6889005087       15.3071856150
  C        14.8565301635        8.5629993156       15.2642009196
  C        14.8749408166        8.5629266100       12.4515326964
  C        42.9463856437       31.9615775578        5.8089763058
  C        43.6915826084       30.8854387675        5.0954559166
  C        44.6562838173       31.1913531375        4.1232632042
  C        45.2778174246       30.1717714643        3.4055373058
  C        44.9539475065       28.8214583630        3.6430704386
  C        44.0203064778       28.5237828643        4.6536951131
  C        43.3920263968       29.5405458865        5.3658698541
  C        45.5630457527       27.7240748907        2.8578292851
  C        45.5333408487       27.7173808991        1.4365312114
  C        44.8269349880       28.7075513758        0.6835793507
  C        35.0820204198       26.6468627233        0.7508031561
  C        35.0490095041       26.6229409077        3.5611603008
  C        18.1486636819        3.2469578749        5.7066429508
  C        17.4300495691        4.3438240998        4.9973720566
  C        16.4147812181        4.0525415712        4.0738724197
  C        15.7664646990        5.0831641040        3.3984694685
  C        16.1211758886        6.4283953304        3.6211308391
  C        17.1126211217        6.7117904566        4.5783129152
  C        17.7603036790        5.6828852745        5.2580931330
  C        15.4906639550        7.5240837299        2.8486708395
  C        15.4965367762        7.5074490696        1.4275329768
  C        16.1932913384        6.5057347152        0.6808428731
  H        10.6725321761       12.4659511862        3.9043962012
  H        11.6947393722       10.5511118033        2.6625397273
  H        15.3916476540       11.1684518792        4.7723641671
  H        14.3512155420       13.0712647918        6.0175548995
  H        13.3762256380       11.6311477883        1.2012717328
  H        50.3228264706       22.7484377817        3.9867829609
  H        49.3196851849       24.6229082370        2.6807889055
  H        45.6422709489       24.1613042041        4.8637883711
  H        46.6631684050       22.2903766950        6.1720264809
  H        47.6299545576       23.5759613218        1.2461744394
  H        14.8721861423        8.5882713232        4.6085551290
  H        50.2871454646       22.7026065346       12.0604721126
  H        49.2691539533       24.5754822404       13.3604862310
  H        45.6107035034       24.1094294800       11.1458303078
  H        46.6528341935       22.2541369837        9.8315667833
  H        47.6079118880       23.5519051884       14.7968569217
  H        40.6627728464       17.1325912270       11.4245098109
  H        48.6872115600       14.0948598409        7.8000830664
  H        10.6813968346       12.4667262024       12.0933765026
  H        11.6896262759       10.5247866104       13.2970970261
  H        15.3934272916       11.1586126044       11.2053194455
  H        14.3649727537       13.0870577891        9.9900471006
  H        13.3758600973       11.6220859034       14.7530767598
  H        47.9302398424       14.2184132448        9.7107091079
  H        47.7801521976       14.3739922158        6.4954254293
  H        49.0846098573       18.5526633347       10.8674587656
  H        10.4162091925       14.1342672147        7.9986421667
  H        24.4866534783        3.0241072342        3.9204931080
  H        25.6336855056        4.8797882718        2.6953721401
  H        23.2633045097        7.7531308195        4.8456054669
  H        22.1342984612        5.8876191352        6.0722514419
  H        23.8247227107        5.7875215180        1.2676476438
  H        36.3592669552       32.1944998392        3.9850809513
  H        35.2101884443       30.3780293699        2.7179551738
  H        37.4660573015       27.4393147704        4.9032592114
  H        38.5951035966       29.2689396513        6.1804551711
  H        36.9798108243       29.4600143812        1.3003953082
  H        25.7553458118        8.6038326727        4.6525480333
  H        36.4526924936       32.2456829197       12.1109834288
  H        35.3374777140       30.4344389456       13.4106795160
  H        37.5384659477       27.4888644331       11.1773101981
  H        38.6277460413       29.3118231333        9.8640215484
  H        37.0178036114       29.4785431293       14.8533062437
  H        46.1092920395       26.5875925952       11.3855516328
  H        44.6681998001       35.1161215753        7.8139924601
  H        24.4375588831        3.0382384736       12.0857826547
  H        25.5716109196        4.8755966188       13.3366795254
  H        23.1713147620        7.7677122347       11.2460318995
  H        22.0492025642        5.9183305608        9.9947035548
  H        23.7996401851        5.7898296298       14.8192869348
  H        44.9535208466       34.3901711785        9.6950669165
  H        44.9015332633       34.2066620968        6.4907220599
  H        40.6660913609       33.2091667184       10.8531975663
  H        23.1505579723        1.9576500762        8.0054379123
  H        25.8073634922       19.6725468394        3.9292123845
  H        23.6405518906       19.7186873034        2.6963894971
  H        22.3539297342       16.2181386458        4.8389357325
  H        24.5286292209       16.1825774717        6.0672148752
  H        23.7255144728       17.6951872298        1.2468517047
  H        35.1575150061       15.4357074997        3.9957524442
  H        37.2777119833       15.3966445385        2.6793351183
  H        38.6948891854       18.8066614483        4.8850895278
  H        36.5680420861       18.8284053734        6.2027614799
  H        37.2305724457       17.3782222803        1.2453568851
  H        20.3565373382       17.9826504518        4.6689563372
  H        35.2212292898       15.4376150624       12.0481155891
  H        37.3543041334       15.3853690961       13.3482182355
  H        38.7302590033       18.8533890067       11.2085589744
  H        36.5925914775       18.8863793596        9.9057156468
  H        37.2496742546       17.3854548701       14.7925529056
  H        35.1560622940       26.6862582126       11.4078169023
  H        28.5084851437       21.0859864887        7.9686643455
  H        25.7549675983       19.6418104303       12.1502467608
  H        23.5710987608       19.7004532205       13.3650932787
  H        22.3049699690       16.1811611101       11.2418755232
  H        24.4895190078       16.1443058625       10.0228416655
  H        23.7048551139       17.6794408615       14.7976801606
  H        29.0053746236       21.7190273916        9.7626408023
  H        29.1411561770       21.7521353506        6.6107957614
  H        32.1419895469       18.5525804743       10.9292441895
  H        27.4090424452       19.0809153638        8.0870519459
  H        14.8497145821       19.6504665002       12.1379949240
  H        17.0125035761       19.6993728115       13.3801059718
  H        18.3053014348       16.1913115198       11.2539423025
  H        16.1384611858       16.1581945891       10.0113143934
  H        16.9232332486       17.7033011814       14.8461777201
  H        46.0960136028       15.4460366957       12.0700647848
  H        43.9737802666       15.3969565294       13.3840987315
  H        42.5665363764       18.8364763311       11.2173687893
  H        44.6882674368       18.8593911421        9.8922184416
  H        44.0343146047       17.3351691376       14.8462502571
  H        20.2936566816       17.9266709173       11.4207611551
  H        46.0429033896       15.3824430335        4.0414457915
  H        43.9107598615       15.3186972835        2.7462780001
  H        42.5178411593       18.7820095442        4.8829126781
  H        44.6567142234       18.8323381881        6.1784699143
  H        44.0151883152       17.3060916813        1.2959943940
  H        46.1992091781       26.6826639110        4.6233290164
  H        52.7411666240       21.0626466560        8.1946799349
  H        14.8774207857       19.6776027761        3.8997501893
  H        17.0776068608       19.7548026794        2.7190665892
  H        18.3369581793       16.2349410479        4.8452152183
  H        16.1387655024       16.1817017332        6.0355326520
  H        16.9430822331       17.7199471303        1.2935903586
  H        52.3223915546       21.6732966568        6.2943571990
  H        52.0131737787       21.7019898363        9.4956834779
  H        49.0675180015       18.6077719632        5.2041458626
  H        13.2476148861       19.0163766323        7.9773285246
  H        29.9656303509       12.4356260402       12.2072885997
  H        28.8996294439       10.5037868526       13.3826052208
  H        25.2440973902       11.2203545098       11.2345434655
  H        26.3274710705       13.1425979666       10.0562365081
  H        27.1926300766       11.6613838258       14.7933210002
  H        30.9922752901       22.7799885248       12.0097664569
  H        31.9941637030       24.6601898108       13.3079855535
  H        35.6936918316       24.1452164804       11.1750161760
  H        34.6699448619       22.2734004456        9.8687881048
  H        33.6484744595       23.5908548075       14.7612169880
  H        25.7083548558        8.5961778911       11.4058471583
  H        30.8866988878       22.6946055472        3.9394983324
  H        31.8936372803       24.5694559294        2.6383180001
  H        35.5408433055       24.1531527498        4.8810069052
  H        34.5165640734       22.2834352066        6.1830406096
  H        33.5967391776       23.5797267915        1.2093856429
  H        40.5945986915       17.0727396991        4.6625459516
  H        32.5070344722       14.1460009566        8.2434532556
  H        29.9107228097       12.5252445837        3.9250322735
  H        28.8874383833       10.6201798742        2.6734162437
  H        25.2222059560       11.1691957591        4.8553715586
  H        26.2676575073       13.0581793613        6.1157613078
  H        27.1920767347       11.6744439949        1.2433759022
  H        33.3105921882       14.2362506211        6.4716165063
  H        33.4114660771       14.4045486427        9.5927469895
  H        32.1296026020       18.4886878858        5.1673238750
  H        30.2250999437       14.1907019979        8.0740193146
  H        16.1183499591        2.9632751801       12.1296055621
  H        14.9531952262        4.8203469451       13.3223788615
  H        17.3663759934        7.6859025301       11.2102331839
  H        18.5150828089        5.8183520702       10.0104067848
  H        16.7536150780        5.7395500970       14.7715289104
  H        44.8278857443       32.1402448984       11.9771001475
  H        45.9372007102       30.3413791122       13.3065267330
  H        43.6824865835       27.3781262614       11.1523178926
  H        42.5997715463       29.1899809591        9.8097016567
  H        44.2302053940       29.4366043378       14.7688805503
  H        14.8511835356        8.5461358114       11.3633130645
  H        44.8998955606       32.2340329645        3.9318965520
  H        46.0247959614       30.4129973118        2.6523716406
  H        43.7632074444       27.4840650766        4.8451377737
  H        42.6453846440       29.3177370013        6.1241723701
  H        44.2683630085       29.4703891795        1.2181682173
  H        35.0021373892       26.6343063142        4.6485003807
  H        36.6051813067       35.1340443673        8.1806213434
  H        16.1436667809        3.0129621468        3.9042087291
  H        14.9740934319        4.8563084903        2.6884385652
  H        17.3961949223        7.7472521213        4.7551292550
  H        18.5432541832        5.8933392308        5.9827763972
  H        16.7647179548        5.7554972526        1.2192939386
  H        36.2788656432       34.4821841245        6.2733420955
  H        36.3809889969       34.2090064704        9.4995341380
  H        40.5788790633       33.2016608486        5.1541172798
  H        17.4709866545        1.9470859397        7.9740904143
  H        29.1652646335       19.3485686306       12.5012529984
  H        28.8646671745       18.4730600515        3.8548852392
  H        31.7598819063       15.7802357170        3.5147495644
  H        31.4619877561       15.6631227835       12.5079639273
  H        28.2161110722       17.7969007771       14.4978273633
  H        29.6200004645       15.4532273015       14.4051386919
  H        30.1009803928       19.8715413559        2.0263796349
  H        32.6220440978       17.5903924141        1.3598456376
  H        18.8530319024        0.8689723266       12.3351523574
  H        40.5281092040       35.2289693054        3.9521290359
  H        42.3235429493       34.4183314501        3.5908463626
  H        22.0875873727        0.6917387986       12.3516510770
  H        11.5968204478       18.7130242245       12.3826718318
  H        52.2647294474       18.4312722033        3.6770471855
  H        49.2552692075       16.4771632354        3.5846083099
  H        10.1501456230       15.7982050247       12.2929118183
  H        50.8500042763       17.6923416777        3.9542739713
  H        10.0461008301       17.3944505025       12.0519798037
  H        20.2141593244        0.0020843652       12.0420885781
  H        39.1837123733       36.1242923572        3.6862887831
 Ni        30.9030272538       17.8371008932        2.9111182906
 Ni        31.0310471000       16.5472885335        0.0014236845
 Ni        29.8411813198       18.6988169973       -0.0726641943
 Ni        30.1831594524       17.4255270999       13.1563245185
  O        10.6499558619       14.3650715739        5.4858347315
  O        12.6131904569       14.6575301090        6.5838911791
  O        49.1481217455       16.8459296814        7.9897312993
  O        50.3502898180       20.9358875035        5.6480845667
  O        48.3485834717       20.5933361966        6.6658993852
  O        11.0518128510       17.0538479412        6.5007332703
  O        50.3210972421       20.8816609452       10.4068281884
  O        48.3467906833       20.5867763335        9.3271538568
  O        49.5442469342       18.2484718552       10.0682080695
  O        12.3591500031       18.6246123243        7.9997148522
  O        48.6932911261       14.1485108293        6.7513316935
  O         8.2099666541       14.2102896264        9.3224773012
  O        10.7354278329       14.5067239301       10.6643185044
  O        12.5718605274       14.5828308475        9.3284870402
  O        22.8445635548        2.0426456371        5.4872886336
  O        21.6061008870        3.5925641836        6.5891697061
  O        42.0579665876       34.1371861929        7.9789958137
  O        37.9813305753       33.1372261588        5.5726467126
  O        39.2171839378       31.5751595161        6.6657976123
  O        20.3083890944        1.0395476223        6.5021183022
  O        38.0245641325       33.1853925167       10.4154973128
  O        39.2183591032       31.5830118865        9.3274982178
  O        40.6522164659       33.7692985291       10.0601846547
  O        18.2556905238        1.3759383123        7.9967810846
  O        44.6222276713       35.1005047884        6.7587794419
  O        24.2053627941        0.0000098870        9.3208039648
  O        22.7530711077        2.0577325862       10.5838812947
  O        21.6247352713        3.5963946436        9.3432019169
  O        27.5002785793       18.7495524974        5.4904340625
  O        26.7612264103       16.9382865201        6.6543876327
  O        30.6700576462       19.4025361011        8.0594758819
  O        33.5867112698       16.2730064576        5.6663577282
  O        34.2779489995       18.1656116673        6.7310249214
  O        29.5750244278       17.0609753595        6.5827499442
  O        33.6189153182       16.3260356036       10.4096732922
  O        34.3097983451       18.2440382696        9.4040998073
  O        31.7085826283       18.3155969400       10.0922990410
  O        30.3229603615       15.1569217127        8.0832495601
  O        28.5520449883       21.0333610386        6.9012265451
  O        28.5148372167       20.9554065120        9.4132833741
  O        27.4626567003       18.6794971827       10.6590676275
  O        26.6954721041       16.9297189184        9.4127716060
  O        13.1490699881       18.6929249330       10.5874734031
  O        13.9197881602       16.9162817451        9.4052586477
  O        50.5963625231       19.3502939667        8.0204698274
  O        47.6844901639       16.3266093230       10.4169507259
  O        46.9523252323       18.1758493365        9.3244054220
  O        11.0700699251       17.0154076892        9.4896594956
  O        47.6768059729       16.3353749877        5.6534843733
  O        46.9274960614       18.2357093947        6.6647079119
  O        49.5687908447       18.3177278192        5.9822716131
  O        10.3187284031       15.1001050043        7.9970679083
  O        52.6707777994       21.0278856701        9.2418232931
  O        12.1468465434       20.8912068456        6.6732351807
  O        13.1079292581       18.6137457808        5.3256355035
  O        13.9574179546       16.9871670731        6.6652178046
  O        29.9972574181       14.4464423945       10.7304435759
  O        28.0907885038       14.6537446660        9.4955794994
  O        32.1395560286       16.8528018665        8.0675830693
  O        30.9660544555       20.9515566197       10.4078587153
  O        32.9473887614       20.6066642076        9.3364694357
  O        29.5721562538       17.0759306726        9.5752096492
  O        30.8528051877       20.8854267776        5.6561630628
  O        32.8711625099       20.5877706920        6.6638012309
  O        31.6836581786       18.2546285932        5.9998909568
  O        28.2918682078       18.6766617824        8.0740823976
  O        32.4929498411       14.2130337489        9.3265217061
  O        32.4048068775       14.2162011105        6.8239163018
  O        29.9231223868       14.4412724228        5.4903242632
  O        28.0407202334       14.5897461337        6.7511605939
  O        17.8892202019        1.9665924529       10.6627913427
  O        18.9562685240        3.5271180636        9.4079468567
  O        39.1685894562       34.1386375316        7.9971366085
  O        43.2802037818       33.0589270913       10.3316735527
  O        42.0343933865       31.5064600546        9.2416085566
  O        20.3176063268        1.0367381436        9.4801556373
  O        43.2760839773       33.1825510827        5.5748978178
  O        42.0052238993       31.5841031653        6.5830028112
  O        40.5789332149       33.7748465551        5.9358769097
  O        22.3672850957        1.3846389364        7.9979622488
  O        36.6727738063       35.0997152882        9.2332925179
  O        16.4456101937        0.0642465982        6.6682873286
  O        17.9365026242        2.0433896383        5.3263862133
  O        18.9191384255        3.5931247029        6.6659598696
  O        29.7654602009       18.7658095452        4.0950077777
  O        29.8711890370       18.9056151411       11.9907849238
  O        31.2985853395       16.4161715696        4.0897274156
  O        31.3527542096       16.4854786257       11.9929213804
  O        31.9423861334       16.9241555029        1.5821469709
  O        30.4546909596       15.9539069840       14.3463500592
  O        30.6388995895       19.1919766035        1.5807809370
  O        29.0082538685       18.3322927762       14.3105235977
  O        39.4568462238       35.2437097766        4.0019636359
  O        19.1409229601        0.0044428481       11.9905615763
  O        41.9696109539       35.1726428567        4.0871426368
  O        21.6911143933       -0.0695738393       11.8958801261
  O        51.3649822575       18.6143053750        4.0054048571
  O        10.7511379788       18.7471363759       11.9049080369
  O        50.0797976974       16.4127973219        4.0916931689
  O         9.5243601319       16.4830631969       11.9912328834
 Zr         9.2972255256       16.0526927755        6.1825128849
 Zr        49.8367882877       16.0065708666        9.7462971329
 Zr        22.0731853462        0.0297405600        6.1890089823
 Zr        42.4607822747       35.1534596153        9.8009421397
 Zr        29.6091496550       19.0958616319        6.2920831638
 Zr        29.5967811317       19.1754308415        9.8485491005
 Zr        11.0383609993       19.0518890356        9.8277474975
 Zr        11.0440437085       19.1548152996        6.2509521004
 Zr        31.3626980819       16.1079434443        9.8459867023
 Zr        31.3841141141       16.0207660051        6.2712328315
 Zr        18.6010208792       -0.0016414193        9.7633428242
 Zr        18.5065754558       -0.0078302063        6.2135762162
 Zr        12.3024125927       16.3235767953        7.9903311251
 Zr        48.6169789703       18.8332869764        8.0101681090
 Zr        20.3154572877        2.4735641634        7.9905597990
 Zr        40.6429727655       32.6867208994        7.9781022819
 Zr        28.3450143955       16.3360581480        8.0850629583
 Zr        32.6459795788       18.8403385256        8.0484156115
  H        28.8067471251       19.6980350177        0.1965320100
  H        29.7099753387       17.1583839202        0.4707356320
