     571
 i =      194, E =     -4761.6514436391
  C        11.8587965579       14.0534396195        5.7415971769
  C        12.4562773974       12.8905038368        5.0233669270
  C        11.7046251007       12.1717037247        4.0815682032
  C        12.2810124685       11.1095267910        3.3891999311
  C        13.6215425468       10.7396157515        3.6170403356
  C        14.3546329449       11.4430468484        4.5906708021
  C        13.7817545736       12.5080010213        5.2822122325
  C        14.2610982787        9.6489965327        2.8436200798
  C        14.2563959910        9.6569366232        1.4219226083
  C        13.7432065343       10.7590502186        0.6680169174
  C        49.1269197390       21.2332386443        5.8796308027
  C        48.5502570279       22.4012217038        5.1525805956
  C        49.3002419555       23.0684306646        4.1714714239
  C        48.7333225499       24.1075954585        3.4382995948
  C        47.4028537602       24.5094049484        3.6670692835
  C        46.6719922824       23.8607015057        4.6807643739
  C        47.2344241553       22.8157797289        5.4100945923
  C        46.7725711245       25.5870686113        2.8698001392
  C        46.7614819423       25.5574019245        1.4480420596
  C        47.2614373736       24.4423226623        0.7045390861
  C        14.8604317613        8.5706532147        0.7086574335
  C        14.8919028100        8.5970599013        3.5202626008
  C        49.1133220553       21.2035629638       10.1453739054
  C        48.5279812956       22.3649156752       10.8725350255
  C        49.2671630382       23.0255869994       11.8655129733
  C        48.6908167663       24.0601377212       12.5969630524
  C        47.3604231976       24.4569542098       12.3586748012
  C        46.6400506542       23.8120912456       11.3350898798
  C        47.2136214204       22.7761897972       10.6033197477
  C        46.7219397635       25.5318880248       13.1497040725
  C        46.7336394921       25.5282017597       14.5714029709
  C        47.2491269728       24.4290090011       15.3277788454
  C        40.6366153416       17.1456669796       15.3223120177
  C        40.6572084894       17.1828057258       12.5136634065
  C        11.8830124482       14.0864807379       10.2854727945
  C        12.4723294842       12.9106945714       10.9896609980
  C        11.7148838675       12.1775952718       11.9159185718
  C        12.2815017667       11.0951668851       12.5843411433
  C        13.6202985299       10.7213762089       12.3524353139
  C        14.3581766277       11.4368233371       11.3914642411
  C        13.7927281222       12.5179638605       10.7187530523
  C        14.2539337823        9.6246520260       13.1228456749
  C        14.2526374900        9.6446297211       14.5446838823
  C        13.7426776388       10.7535349463       15.2917632510
  C        22.5143862904        3.2443440389        5.7536442275
  C        23.2353255315        4.3469138948        5.0556762207
  C        24.2350142190        4.0609943566        4.1138616230
  C        24.8696101853        5.0961400667        3.4321242707
  C        24.5205710403        6.4401468011        3.6714401109
  C        23.5491237805        6.7176356246        4.6506231490
  C        22.9099667563        5.6841734667        5.3311138511
  C        25.1329657380        7.5425377784        2.8943987082
  C        25.1065235910        7.5334674252        1.4727390603
  C        24.4018101431        6.5350432280        0.7279672875
  C        38.3017338556       31.9302520233        5.8499504143
  C        37.5697018450       30.8413027976        5.1421251306
  C        36.6076853021       31.1460084041        4.1670235885
  C        35.9882501862       30.1262964986        3.4499154504
  C        36.3164139982       28.7770263707        3.6862784252
  C        37.2483662260       28.4797036016        4.6983425545
  C        37.8717347059       29.4981393293        5.4144838654
  C        35.7135566422       27.6859870579        2.8885512042
  C        35.7456420566       27.7015210837        1.4672264042
  C        36.4513194098       28.7046656994        0.7308383453
  C        25.7313574914        8.6016973813        0.7515667870
  C        25.7322322025        8.6171112848        3.5634863565
  C        38.3292481723       31.9623092261       10.1568062128
  C        37.6085086331       30.8893534499       10.8999782887
  C        36.6787030260       31.1984912072       11.9045028117
  C        36.0686753492       30.1803796859       12.6346708775
  C        36.3742825175       28.8276833806       12.3839474648
  C        37.2822052476       28.5285087190       11.3496845424
  C        37.8942376645       29.5430965169       10.6207130785
  C        35.7656626067       27.7287974233       13.1679595973
  C        35.7724767154       27.7234030124       14.5900520982
  C        36.4636978142       28.7154443406       15.3541034077
  C        46.1355700191       26.6207957351       15.2815480401
  C        46.0879198569       26.5802125305       12.4736560427
  C        22.4618222570        3.2553917551       10.2575853889
  C        23.1587298974        4.3620201702       10.9804902696
  C        24.1634197746        4.0720212252       11.9174176278
  C        24.7952665209        5.0992546280       12.6139419391
  C        24.4424706105        6.4462059789       12.3964793460
  C        23.4606427338        6.7294919806       11.4280856684
  C        22.8243455709        5.7024820069       10.7317024197
  C        25.0783041249        7.5413791676       13.1703708204
  C        25.0791703689        7.5319630806       14.5932212317
  C        24.3869699381        6.5352799881       15.3511371612
  C        26.6225722968       17.8641605064        5.7795483605
  C        25.3174127990       17.9115320079        5.0509084893
  C        25.0497618827       18.9204359201        4.1116839886
  C        23.8364919664       18.9423016483        3.4258309855
  C        22.8522244935       17.9603400945        3.6593868606
  C        23.1160666763       16.9732703779        4.6278279006
  C        24.3318126749       16.9449910823        5.3097864813
  C        21.5776471496       17.9499520953        2.8966483739
  C        21.5776514302       17.9345561194        1.4741609014
  C        22.7835566892       17.8181080133        0.7133116615
  C        34.4480795990       17.1979034111        5.9241352496
  C        35.7413334748       17.1485950231        5.1819903122
  C        35.9663706585       16.1577251971        4.2133067635
  C        37.1434244862       16.1535640818        3.4705127303
  C        38.1297218302       17.1357631029        3.6819189534
  C        37.9110179667       18.1051448630        4.6788738564
  C        36.7292584466       18.1171357411        5.4158374518
  C        39.3830750439       17.1472387432        2.8947097406
  C        39.3777924074       17.1551468152        1.4735198319
  C        38.1695155070       17.2628717046        0.7154664323
  C        20.3309525908       17.9496690530        0.7658535997
  C        20.3533135168       17.9480320628        3.5797333541
  C        34.4799804273       17.2457102822       10.1815252614
  C        35.7832180073       17.1738482493       10.9027132016
  C        36.0117900573       16.1750009242       11.8605273882
  C        37.1961969082       16.1610484289       12.5910359278
  C        38.1810995036       17.1445463691       12.3799857719
  C        37.9612447313       18.1184992444       11.3887345312
  C        36.7735807519       18.1379881162       10.6626040123
  C        39.4264284188       17.1646072815       13.1774609077
  C        39.4001933936       17.1662173897       14.5981990225
  C        38.1799789224       17.2674354855       15.3384264715
  C        35.1413612761       26.6441993717       15.2935589044
  C        35.1779404283       26.6570590948       12.4843265932
  C        26.5708746261       17.8278767811       10.3240674505
  C        25.2546419940       17.8774688218       11.0272673785
  C        24.9940689939       18.8835558375       11.9698261561
  C        23.7760443997       18.9133408664       12.6430088380
  C        22.7905271652       17.9361071744       12.3988275471
  C        23.0457186444       16.9548786563       11.4236523307
  C        24.2639119133       16.9237916693       10.7474823358
  C        21.5278486761       17.9196109331       13.1734124802
  C        21.5521121452       17.9156545066       14.5951178821
  C        22.7713178928       17.8077130505       15.3369521483
  C        14.0465351734       17.8292838670       10.2885817940
  C        15.3507524980       17.8878214920       11.0137712241
  C        15.6062781970       18.8927379017       11.9598657990
  C        16.8150553352       18.9156957108       12.6528619825
  C        17.8024247370       17.9366154980       12.4217999989
  C        17.5516209322       16.9557689561       11.4436848505
  C        16.3422322561       16.9282347719       10.7522238608
  C        19.0715717389       17.9227388312       13.1905105041
  C        19.0706474682       17.9232245852       14.6129659955
  C        17.8640648570       17.8234470228       15.3747384505
  C        46.8072286084       17.2206909585       10.1597152775
  C        45.5199871235       17.1659749186       10.9086030158
  C        45.3135944915       16.1939658743       11.8993752870
  C        44.1338409443       16.1848569617       12.6382747985
  C        43.1323327184       17.1477582202       12.4069664713
  C        43.3363178742       18.0997807572       11.3902547937
  C        44.5167279983       18.1129882144       10.6527079545
  C        41.8799055135       17.1648245936       13.1943653724
  C        41.8841501075       17.1626722336       14.6156624774
  C        43.0924823164       17.2585624338       15.3751712237
  C        20.3176414296       17.9389171471       15.3207072419
  C        20.2953581829       17.9036522122       12.5077889349
  C        46.7869145942       17.2316292794        5.8903234593
  C        45.4835456579       17.1296829438        5.1764881204
  C        45.2625228756       16.1356324685        4.2116255639
  C        44.0746222874       16.1165284787        3.4854540121
  C        43.0799844250       17.0883373436        3.7081842834
  C        43.2906065932       18.0509339425        4.7126579145
  C        44.4796430231       18.0766428889        5.4335759654
  C        41.8353869690       17.1182774424        2.9109065820
  C        41.8615882332       17.1367147386        1.4905567704
  C        43.0819000124       17.2436298411        0.7516502902
  C        46.1533791960       26.6372362070        0.7263027232
  C        46.1625936533       26.6561762777        3.5359354959
  C        14.0459529592       17.8322758433        5.7087931994
  C        15.3671865236       17.9086032996        5.0184121161
  C        15.6391305774       18.9252576577        4.0906594406
  C        16.8680582115       18.9652829982        3.4357983175
  C        17.8531861469       17.9878328985        3.6826157467
  C        17.5880601816       17.0000784820        4.6486778624
  C        16.3610730196       16.9595910158        5.3071236981
  C        19.1204496076       17.9664226579        2.9131519683
  C        19.0960895070       17.9453111185        1.4914339873
  C        17.8763186664       17.8335783299        0.7509604176
  C        28.8115792131       14.0906365901       10.3883590383
  C        28.1991830024       12.9135161739       11.0730358808
  C        28.9335080477       12.1570002577       11.9982163660
  C        28.3383399586       11.0807503735       12.6516377486
  C        26.9946564204       10.7359163005       12.4020297997
  C        26.2814284974       11.4717877179       11.4390303772
  C        26.8746085791       12.5490286146       10.7848876897
  C        26.3315532210        9.6530939068       13.1648988136
  C        26.3296576906        9.6749849886       14.5859658304
  C        26.8401890517       10.7854197659       15.3303285188
  C        32.1818916938       21.2417430418       10.1431771010
  C        32.7790779173       22.4060407769       10.8634613829
  C        32.0291539730       23.0858264940       11.8357171321
  C        32.5997938459       24.1239766473       12.5658572407
  C        33.9353537965       24.5111734289       12.3430925952
  C        34.6678800873       23.8498017098       11.3395227280
  C        34.0999735836       22.8053269744       10.6122853792
  C        34.5627854304       25.5873066872       13.1434954173
  C        34.5519174889       25.5596505995       14.5650322237
  C        34.0418511916       24.4447816843       15.3025209675
  C        25.7216672388        8.5972509014       15.3065243009
  C        25.6895736813        8.6051147724       12.4928842736
  C        32.1020460605       21.2255688034        5.8842263686
  C        32.6897072499       22.3791527479        5.1415125077
  C        31.9577125627       23.0286242283        4.1354990713
  C        32.5363016944       24.0594996589        3.3986966450
  C        33.8606268478       24.4699065907        3.6485110081
  C        34.5750329661       23.8329973972        4.6816179118
  C        34.0013363369       22.7974054773        5.4144392990
  C        34.5001514385       25.5512214403        2.8641033013
  C        34.5180791657       25.5418308773        1.4420653500
  C        34.0241654177       24.4371047829        0.6792397793
  C        40.6249802870       17.1362073231        0.7661964584
  C        40.6048455528       17.1457361494        3.5758261183
  C        28.7433342838       14.0697470258        5.8226499049
  C        28.1396713337       12.9196048882        5.0846887841
  C        28.8790360698       12.2380522596        4.1057263850
  C        28.3078845776       11.1769136051        3.4070084644
  C        26.9810807605       10.7728160950        3.6592218851
  C        26.2593386483       11.4438858859        4.6645334361
  C        26.8292708699       12.5039321762        5.3671445729
  C        26.3459283906        9.6788199957        2.8855071717
  C        26.3373817654        9.6891916338        1.4632629954
  C        26.8403997738       10.7938902894        0.7063591511
  C        18.1355567857        3.1810465497       10.3171267089
  C        17.4063055470        4.2783360781       11.0157731385
  C        16.3904697183        4.0000022187       11.9431631824
  C        15.7427825908        5.0399997743       12.6066758286
  C        16.0948456769        6.3836963813       12.3671053311
  C        17.0843444510        6.6532015983       11.4034629586
  C        17.7333974544        5.6158382265       10.7383944816
  C        15.4704860188        7.4913895655       13.1301453667
  C        15.4857304145        7.4906961822       14.5518603098
  C        16.1873305703        6.4971065774       15.3050240621
  C        42.9458868629       31.8595520734       10.0728629489
  C        43.6462503326       30.7718615424       10.8168758685
  C        44.5917476908       31.0931958953       11.8029641527
  C        45.1974380381       30.0876495699       12.5506517243
  C        44.8710257759       28.7345900258       12.3357730800
  C        43.9452070090       28.4202385349       11.3225613516
  C        43.3364036356       29.4253833615       10.5745063736
  C        45.4886455923       27.6552912370       13.1389386262
  C        45.4927684207       27.6808671491       14.5606318622
  C        44.8056160494       28.6888637415       15.3072616459
  C        14.8566768454        8.5631357669       15.2642259085
  C        14.8751940347        8.5631445208       12.4515499524
  C        42.9464644371       31.9616400645        5.8089992692
  C        43.6917436650       30.8854818454        5.0955233659
  C        44.6562722017       31.1914006773        4.1231727454
  C        45.2778272156       30.1718193699        3.4054616113
  C        44.9540973987       28.8215044818        3.6431409679
  C        44.0206849824       28.5238179194        4.6539752292
  C        43.3923973739       29.5405858931        5.3661362439
  C        45.5631619112       27.7241069348        2.8578977713
  C        45.5333305867       27.7173405112        1.4366010564
  C        44.8269111926       28.7075075522        0.6836549934
  C        35.1259859439       26.6340315186        0.7385359575
  C        35.1093828249       26.6100943344        3.5482753854
  C        18.1486986918        3.2470569013        5.7066605658
  C        17.4301007470        4.3439201656        4.9973973543
  C        16.4148176032        4.0526495787        4.0739085845
  C        15.7665420078        5.0832715166        3.3984701909
  C        16.1213140300        6.4284860334        3.6211226736
  C        17.1127818696        6.7118831269        4.5782756458
  C        17.7604286910        5.6829696683        5.2580730329
  C        15.4908137254        7.5241820779        2.8486734956
  C        15.4966869135        7.5075663129        1.4275378192
  C        16.1935290823        6.5059189533        0.6808395032
  H        10.6725332745       12.4659065831        3.9044619375
  H        11.6947704409       10.5511183232        2.6625694869
  H        15.3916249354       11.1683696991        4.7724947172
  H        14.3511981539       13.0711403642        6.0177262325
  H        13.3761503158       11.6311544121        1.2013262748
  H        50.3228917532       22.7482703166        3.9866112074
  H        49.3197694245       24.6227606688        2.6806245493
  H        45.6425792622       24.1616573865        4.8640896373
  H        46.6634769064       22.2906942727        6.1723441114
  H        47.6300293350       23.5759599343        1.2462104230
  H        14.8722750162        8.5882970937        4.6085682217
  H        50.2872045847       22.7027393318       12.0604439574
  H        49.2691889493       24.5755921625       13.3604812024
  H        45.6106766523       24.1094040143       11.1459625107
  H        46.6528346269       22.2540914387        9.8316846548
  H        47.6079302623       23.5519003719       14.7968830631
  H        40.6639627897       17.1542926631       11.4257707903
  H        48.6871158999       14.0949179396        7.8000491649
  H        10.6814289697       12.4666832725       12.0933905994
  H        11.6897675552       10.5248032046       13.2971085899
  H        15.3935908747       11.1589210745       11.2054572477
  H        14.3650472375       13.0872776803        9.9901652659
  H        13.3758569778       11.6221566605       14.7531366473
  H        47.9302263618       14.2182333747        9.7109140099
  H        47.7800992775       14.3736684983        6.4952792803
  H        49.0845099577       18.5528121025       10.8676448068
  H        10.4162726004       14.1342487564        7.9986912526
  H        24.4923114811        3.0209281541        3.9262556038
  H        25.6446735982        4.8733552374        2.7019985624
  H        23.2719748506        7.7521956047        4.8421995577
  H        22.1379915281        5.8899274628        6.0686531277
  H        23.8407164750        5.7790061061        1.2694133505
  H        36.3705892694       32.1894178157        3.9731388147
  H        35.2421139841       30.3657309222        2.6954371743
  H        37.5089021119       27.4404177952        4.8876745032
  H        38.6170848809       29.2768665190        6.1747255390
  H        37.0146386915       29.4552303181        1.2775963360
  H        25.7657844968        8.6018150246        4.6513794963
  H        36.4547344422       32.2427689895       12.1102722506
  H        35.3418484353       30.4256558541       13.4058937301
  H        37.5302046649       27.4882380357       11.1494978343
  H        38.6174738925       29.3170881900        9.8409665769
  H        37.0376912756       29.4738288851       14.8294624486
  H        46.1093725243       26.5876690618       11.3856208194
  H        44.6682618870       35.1161543156        7.8139532114
  H        24.4399836505        3.0329283386       12.0809832357
  H        25.5782609975        4.8673440791       13.3327568625
  H        23.1767961883        7.7649231345       11.2511300415
  H        22.0507705927        5.9185175952        9.9983955855
  H        23.8138069653        5.7800381037       14.8212224922
  H        44.9536622548       34.3901685333        9.6949945818
  H        44.9015573933       34.2066681011        6.4907209904
  H        40.6659743696       33.2092831330       10.8532067493
  H        23.1507454211        1.9577370715        8.0053729264
  H        25.8009634270       19.6876251868        3.9379209880
  H        23.6345303662       19.7311436814        2.7042476994
  H        22.3684484105       16.2055300714        4.8168185532
  H        24.5454092497       16.1697956326        6.0420901007
  H        23.7248655122       17.7043490609        1.2429102886
  H        35.2061486818       15.3968777768        4.0529864928
  H        37.3162250475       15.3803802787        2.7250236715
  H        38.6668667953       18.8697571931        4.8461044840
  H        36.5416751044       18.8797247167        6.1682708700
  H        37.2280244767       17.3722032890        1.2462118213
  H        20.3604555937       17.9834075239        4.6677680214
  H        35.2432848602       15.4247848664       12.0294842978
  H        37.3722878174       15.3851292571       13.3328228937
  H        38.7171104012       18.8832946570       11.2226446169
  H        36.5796046898       18.9071083122        9.9187874803
  H        37.2467275391       17.3806301154       14.7938825058
  H        35.1523126617       26.6822403705       11.3965619275
  H        28.5115820078       21.0824667283        7.9789751416
  H        25.7597935669       19.6325490966       12.1587150481
  H        23.5735181849       19.6982182060       13.3685344575
  H        22.2931242116       16.1934153659       11.2294192703
  H        24.4771664497       16.1544098406       10.0092084031
  H        23.7031894800       17.6863902035       14.7927336040
  H        28.9861579163       21.7270823084        9.7703893846
  H        29.1537240738       21.7461198679        6.6187791902
  H        32.1128791530       18.5284945989       10.9750616490
  H        27.4068827671       19.0751690200        8.0742452181
  H        14.8471184889       19.6513735003       12.1366602118
  H        17.0096910864       19.7012687074       13.3798562724
  H        18.3036449407       16.1919965480       11.2564068142
  H        16.1369762063       16.1578230769       10.0127496054
  H        16.9216370836       17.7055724339       14.8478073987
  H        46.0943930988       15.4596204581       12.0828935068
  H        43.9723605432       15.4235992593       13.3982949197
  H        42.5703343479       18.8508612934       11.2088157435
  H        44.6924028715       18.8618093669        9.8840115156
  H        44.0340999916       17.3762842991       14.8465004801
  H        20.2886671718       17.9301461934       11.4195828775
  H        46.0373059968       15.3937702673        4.0319894155
  H        43.9045530715       15.3464307609        2.7362032923
  H        42.5265110578       18.8047412936        4.8905694653
  H        44.6658727801       18.8389980858        6.1859392327
  H        44.0153696463       17.3486455203        1.2969080337
  H        46.1995316752       26.6827924806        4.6233773103
  H        52.7411852648       21.0626628757        8.1947105594
  H        14.8774656629       19.6779703936        3.8994414001
  H        17.0776713916       19.7568440782        2.7195452931
  H        18.3396896416       16.2387924315        4.8472220351
  H        16.1414576085       16.1839937264        6.0368138523
  H        16.9431856151       17.7232364949        1.2951419668
  H        52.3224781456       21.6733001659        6.2942948099
  H        52.0132643869       21.7020771324        9.4956833435
  H        49.0679624065       18.6079481031        5.2040152133
  H        13.2476436645       19.0163343219        7.9773102185
  H        29.9699065499       12.4273408119       12.1879682802
  H        28.9089106936       10.4932387735       13.3677749121
  H        25.2431587470       11.2149281933       11.2391463178
  H        26.3218797596       13.1386154503       10.0575174509
  H        27.2036689991       11.6531838330       14.7881105037
  H        31.0015774190       22.7761131080       12.0116393515
  H        32.0134864121       24.6506642645       13.3156796457
  H        35.7017261764       24.1394732413       11.1627724450
  H        34.6708312970       22.2686819774        9.8579602312
  H        33.6880986173       23.5752078111       14.7558761823
  H        25.7110924277        8.5896402749       11.4046291394
  H        30.9389085299       22.7041089657        3.9366587562
  H        31.9615796018       24.5642799909        2.6252409352
  H        35.6002153188       24.1386573494        4.8802621309
  H        34.5582172265       22.2840155857        6.1948798365
  H        33.6555496597       23.5617555386        1.2063621775
  H        40.5968630923       17.1099071412        4.6635306867
  H        32.5132712713       14.1417312288        8.2591220111
  H        29.9015589701       12.5555348724        3.9125933495
  H        28.8899727819       10.6424018134        2.6593889975
  H        25.2327414670       11.1450919173        4.8664620130
  H        26.2689239141       13.0360435500        6.1323498864
  H        27.2027780578       11.6687437046        1.2381065247
  H        33.2988035321       14.1925402317        6.4445464211
  H        33.4107319734       14.4187034142        9.5968225691
  H        32.1383469819       18.5621891231        5.1963036874
  H        30.2128676021       14.1854616997        8.0824983230
  H        16.1183240791        2.9635034924       12.1294724642
  H        14.9532504599        4.8206369797       13.3222510949
  H        17.3669286362        7.6860581418       11.2104743470
  H        18.5155428489        5.8184677539       10.0106551948
  H        16.7539475495        5.7398149687       14.7715156381
  H        44.8280134979       32.1402852212       11.9771402872
  H        45.9372977857       30.3414080683       13.3066001214
  H        43.6825058551       27.3781691912       11.1524500195
  H        42.5997961922       29.1900698506        9.8098239864
  H        44.2302128040       29.4365916195       14.7689536390
  H        14.8514911767        8.5463882306       11.3633282121
  H        44.8997571187       32.2340900035        3.9316986864
  H        46.0246793248       30.4130667026        2.6521785554
  H        43.7637860531       27.4840797031        4.8455813471
  H        42.6459574529       29.3178012735        6.1246440296
  H        44.2683647626       29.4703573492        1.2182548946
  H        35.0660525278       26.6226898079        4.6357108318
  H        36.6051777512       35.1341243263        8.1806543494
  H        16.1436773663        3.0130724246        3.9042677753
  H        14.9741723805        4.8564380477        2.6884297169
  H        17.3964154901        7.7473354901        4.7550468793
  H        18.5434290786        5.8934117250        5.9827051628
  H        16.7650038820        5.7557169610        1.2192897453
  H        36.2787251342       34.4825299174        6.2732013365
  H        36.3811343807       34.2091071031        9.4996210184
  H        40.5800404411       33.2026401219        5.1535326366
  H        17.4709176092        1.9475359562        7.9742068459
  H        28.9823954384       19.1184192855       12.4714083832
  H        28.9276222794       19.0271118119        3.7319914557
  H        32.4047081889       16.2749830010        3.8376517932
  H        31.9730204213       15.8093490251       12.5180987851
  H        28.2567746058       17.8135352917       14.7318653435
  H        30.4291317572       15.1988450387       14.5624669517
  H        32.0904732373       19.5760431352        1.2290595631
  H        28.2974186710       17.3346633346        1.7203299810
  H        31.4579356642       19.7126113895       13.6147214467
  H        18.8539602259        0.8691676994       12.3353994666
  H        40.5279666902       35.2290992488        3.9520124856
  H        42.3240742082       34.4189503990        3.5903430294
  H        22.0876885938        0.6921315484       12.3515043915
  H        11.5968167980       18.7129117266       12.3826884370
  H        52.2649432994       18.4311268925        3.6771158386
  H        49.2552261544       16.4769402166        3.5845511488
  H        10.1496345251       15.7981724131       12.2930182669
  H        50.8500996673       17.6924021959        3.9542378258
  H        10.0458801522       17.3944251616       12.0519848447
  H        20.2153659107        0.0023740712       12.0419161120
  H        39.1837576029       36.1245805240        3.6863404769
 Ni        30.3096950857       17.2060526418        3.0801298539
 Ni        30.1767162266       16.7504145611        0.3383981891
 Ni        30.2181495619       19.0198787691       -0.4125459262
 Ni        30.4779617903       17.5561293789       13.3220956079
  O        10.6500029406       14.3651001083        5.4858479803
  O        12.6132087131       14.6575407430        6.5838909964
  O        49.1482427836       16.8458660023        7.9897107235
  O        50.3503462261       20.9357803493        5.6480402265
  O        48.3486062193       20.5933845129        6.6658867967
  O        11.0518896626       17.0537795835        6.5006994792
  O        50.3210928806       20.8816631647       10.4068586694
  O        48.3467930552       20.5868501240        9.3271934068
  O        49.5438499944       18.2484238081       10.0683004809
  O        12.3591756672       18.6245853433        7.9996676934
  O        48.6932767526       14.1485273075        6.7513178356
  O         8.2098913462       14.2103447824        9.3225209089
  O        10.7354123117       14.5067559693       10.6643329501
  O        12.5718316535       14.5828502338        9.3284826257
  O        22.8446470415        2.0425437963        5.4872748573
  O        21.6066363593        3.5928995248        6.5886347331
  O        42.0582292491       34.1374473276        7.9789405007
  O        37.9816713079       33.1385851627        5.5727119994
  O        39.2179818904       31.5763048781        6.6665186059
  O        20.3084850270        1.0397836603        6.5021797085
  O        38.0248464346       33.1860816642       10.4151363680
  O        39.2191238000       31.5837739122        9.3265116731
  O        40.6523054217       33.7694301944       10.0602203837
  O        18.2555714143        1.3763169223        7.9967971552
  O        44.6222470036       35.1005069520        6.7587542838
  O        24.2054340143       -0.0000274098        9.3207534058
  O        22.7530044723        2.0570354289       10.5835732580
  O        21.6248521105        3.5963668358        9.3433614940
  O        27.5026852054       18.7547498628        5.4916637620
  O        26.7612948278       16.9410459734        6.6515037885
  O        30.6696348523       19.4038116953        8.0661115098
  O        33.5914299690       16.2784456557        5.6636620018
  O        34.2769264425       18.1680248375        6.7361023553
  O        29.5770821719       17.0603542215        6.5778735175
  O        33.6210739143       16.3275647136       10.4120102166
  O        34.3062512035       18.2457274085        9.4063811821
  O        31.6601774318       18.3154701754       10.1421782044
  O        30.3200440327       15.1507158827        8.0861473958
  O        28.5546928453       21.0323364793        6.9030446633
  O        28.5125796632       20.9585771668        9.4095907591
  O        27.4578357733       18.6778587561       10.6600309768
  O        26.6940124873       16.9292803335        9.4123940308
  O        13.1484146478       18.6930767030       10.5872856242
  O        13.9195173298       16.9163078143        9.4051583365
  O        50.5965433039       19.3503556380        8.0204656648
  O        47.6836544212       16.3270430377       10.4172210331
  O        46.9527445253       18.1762027766        9.3238540120
  O        11.0699388053       17.0154405722        9.4896249596
  O        47.6763070900       16.3354522690        5.6531137185
  O        46.9292207404       18.2358686769        6.6657172940
  O        49.5689464329       18.3177120403        5.9822549104
  O        10.3187386872       15.1000796357        7.9970752272
  O        52.6707743550       21.0278885964        9.2418267252
  O        12.1468833888       20.8912052704        6.6732072195
  O        13.1081379305       18.6136935973        5.3255894800
  O        13.9576327562       16.9872234580        6.6650886412
  O        29.9928876506       14.4413388611       10.7274856072
  O        28.0880052483       14.6544064684        9.4936880042
  O        32.1403456141       16.8517682350        8.0775600782
  O        30.9688362188       20.9555398807       10.4077818873
  O        32.9491113555       20.6017450812        9.3374785470
  O        29.5700365772       17.0729218759        9.5773433645
  O        30.8725487518       20.9399592962        5.6619155310
  O        32.8789430949       20.5843418474        6.6665341208
  O        31.6806599884       18.2503499238        5.9925010711
  O        28.2917792471       18.6754910824        8.0754540958
  O        32.4945419108       14.2138772886        9.3320594320
  O        32.4064808553       14.2102163610        6.8283333905
  O        29.9146170505       14.4422080212        5.4914054237
  O        28.0350492107       14.5921841788        6.7544880849
  O        17.8892516727        1.9667221309       10.6628045006
  O        18.9563156674        3.5271897761        9.4079236972
  O        39.1686425998       34.1388759234        7.9972086464
  O        43.2802430586       33.0589409492       10.3317226703
  O        42.0345277500       31.5064389286        9.2416299624
  O        20.3177931566        1.0369481721        9.4799364121
  O        43.2761072459       33.1825692867        5.5748768678
  O        42.0052780587       31.5840926116        6.5829678363
  O        40.5789933997       33.7750587429        5.9358326436
  O        22.3674106750        1.3848021256        7.9979044666
  O        36.6727916103       35.0998140944        9.2333020736
  O        16.4455775830        0.0644160658        6.6683160189
  O        17.9364931916        2.0434735179        5.3263976098
  O        18.9192169256        3.5931821484        6.6659371435
  O        29.8203381054       18.8340819695        4.0760985330
  O        29.8186074377       18.9777374031       11.9804247633
  O        31.4735567081       16.1291799093        4.0827132477
  O        31.3977495266       16.4050392702       12.0094130403
  O        29.1838341481       17.7218541324        1.5924201086
  O        30.8461385313       16.0446782055       14.8052307659
  O        31.6085194535       18.9764325974       14.2399647177
  O        31.1415215274       19.7915898842        1.2472232619
  O        28.8562264457       18.4661403291       14.3318614372
  O        39.4567951956       35.2439528096        4.0019721834
  O        19.1418419917        0.0047716089       11.9904936856
  O        41.9695652487       35.1726722059        4.0871101233
  O        21.6912839876       -0.0693591188       11.8959613704
  O        51.3651820031       18.6142737256        4.0053888983
  O        10.7511315844       18.7471463330       11.9049474684
  O        50.0797029723       16.4128152626        4.0917330959
  O         9.5239840708       16.4831199432       11.9912336720
 Zr         9.2973565811       16.0526376053        6.1825428258
 Zr        49.8366532271       16.0065624905        9.7462575719
 Zr        22.0733046829        0.0301493921        6.1888679731
 Zr        42.4609474184       35.1536687447        9.8009146777
 Zr        29.6151025147       19.0984002673        6.3031142113
 Zr        29.5783044576       19.1805134914        9.8855093028
 Zr        11.0382852904       19.0518958600        9.8277767440
 Zr        11.0442422169       19.1547720318        6.2509351062
 Zr        31.3495511304       16.1073016862        9.8736027218
 Zr        31.3891866333       15.9929813834        6.2975744524
 Zr        18.6013198481       -0.0010321746        9.7633784178
 Zr        18.5066176380       -0.0073179624        6.2138280571
 Zr        12.3024348432       16.3235094825        7.9902969047
 Zr        48.6174010750       18.8333857137        8.0103349896
 Zr        20.3158208725        2.4740396542        7.9904072907
 Zr        40.6435396505       32.6873749115        7.9782125201
 Zr        28.3442993160       16.3397314688        8.0867696659
 Zr        32.6290710644       18.8388821823        8.0633087341
  H        30.7959556700       19.4149097372        2.0960671044
