     571
 i =      171, E =     -4761.6226428142
  C        11.8588914904       14.0533932994        5.7415809740
  C        12.4563484467       12.8905121341        5.0233736441
  C        11.7047575387       12.1717493698        4.0814778841
  C        12.2811523547       11.1095865438        3.3891134881
  C        13.6216517482       10.7395846075        3.6170477471
  C        14.3546729862       11.4429463739        4.5907922426
  C        13.7817899242       12.5079000995        5.2823282764
  C        14.2611788940        9.6489456521        2.8436255387
  C        14.2564396959        9.6568850758        1.4219275842
  C        13.7433845379       10.7590545307        0.6680128411
  C        49.1270307358       21.2332398710        5.8795858229
  C        48.5504340785       22.4012366927        5.1526101302
  C        49.3003316230       23.0682616526        4.1712929070
  C        48.7334365481       24.1074481054        3.4381342139
  C        47.4030599008       24.5095157083        3.6670719432
  C        46.6723294009       23.8610442546        4.6810328120
  C        47.2347331415       22.8161130595        5.4103593942
  C        46.7727433136       25.5871348147        2.8697726037
  C        46.7617264077       25.5574775231        1.4480091794
  C        47.2617528124       24.4424552381        0.7044667500
  C        14.8603453392        8.5705325641        0.7086536907
  C        14.8919339631        8.5969727073        3.5202696067
  C        49.1134147918       21.2036247613       10.1453577365
  C        48.5281450998       22.3650112799       10.8724113382
  C        49.2672364963       23.0254708678       11.8656167408
  C        48.6909168887       24.0600475326       12.5970419719
  C        47.3606396573       24.4571644636       12.3585334779
  C        46.6404553818       23.8126311607       11.3345872584
  C        47.2139921286       22.7767290805       10.6028110095
  C        46.7221085941       25.5320240878       13.1496117566
  C        46.7338724696       25.5283108977       14.5713169665
  C        47.2494486153       24.4291666551       15.3277054767
  C        40.6363849750       17.1237965042       15.3221128283
  C        40.6560562463       17.1689318430       12.5132940763
  C        11.8831366054       14.0864453701       10.2855166370
  C        12.4723998594       12.9107100012       10.9896867358
  C        11.7150043314       12.1776996453       11.9160778455
  C        12.2815994355       11.0952579803       12.5844778423
  C        13.6203301800       10.7212839985       12.3524136196
  C        14.3581248476       11.4366000764       11.3912696532
  C        13.7927096486       12.5177697909       10.7185805389
  C        14.2539277158        9.6245465742       13.1228311233
  C        14.2526200842        9.6445468468       14.5446687987
  C        13.7428453667       10.7535302651       15.2917585562
  C        22.5145532301        3.2445937470        5.7532225530
  C        23.2359537209        4.3470381959        5.0545451486
  C        24.2355550497        4.0603752145        4.1127762517
  C        24.8714117259        5.0948219187        3.4309590721
  C        24.5240214906        6.4394090902        3.6697998356
  C        23.5522693470        6.7176311440        4.6485980338
  C        22.9119057759        5.6847990942        5.3292693146
  C        25.1384735193        7.5411767663        2.8928241790
  C        25.1138147748        7.5318317989        1.4709257087
  C        24.4091127974        6.5338728523        0.7255326160
  C        38.2981064702       31.9273985123        5.8513519572
  C        37.5574269433       30.8387338568        5.1492467483
  C        36.5944660875       31.1453896064        4.1751629038
  C        35.9651655213       30.1274158484        3.4635543090
  C        36.2829290110       28.7758266548        3.7024597304
  C        37.2149412229       28.4767691631        4.7144277633
  C        37.8484460041       29.4936475704        5.4253371696
  C        35.6741599398       27.6869182009        2.9030400128
  C        35.7182047945       27.6995390157        1.4812499438
  C        36.4322939718       28.6994098911        0.7484769731
  C        25.7403606998        8.5993393752        0.7499228054
  C        25.7385694940        8.6153855656        3.5620090642
  C        38.3299326409       31.9608139949       10.1599019217
  C        37.6122275685       30.8882853973       10.9083114532
  C        36.6847096687       31.1983171378       11.9150730333
  C        36.0745744660       30.1815442577       12.6477200245
  C        36.3764392989       28.8275244892       12.3980877298
  C        37.2840560128       28.5276686902       11.3633067873
  C        37.8963424644       29.5408946888       10.6319559340
  C        35.7626241232       27.7286078704       13.1801450979
  C        35.7633188214       27.7206880693       14.6028442569
  C        36.4526982168       28.7101655000       15.3717089700
  C        46.1357140193       26.6208355564       15.2814965699
  C        46.0879897684       26.5803292246       12.4736010477
  C        22.4628141226        3.2555679201       10.2574760668
  C        23.1621391703        4.3617570282       10.9796129559
  C        24.1678055549        4.0704592477       11.9151777595
  C        24.8023263947        5.0967176671       12.6109043985
  C        24.4514976457        6.4443334117       12.3942528649
  C        23.4686071673        6.7289422915       11.4272714604
  C        22.8296561321        5.7028660764       10.7316214907
  C        25.0897264922        7.5385841100       13.1681362414
  C        25.0894198377        7.5297019394       14.5910923086
  C        24.3956754553        6.5338542534       15.3486356566
  C        26.6213050742       17.8628488080        5.7818575716
  C        25.3165215396       17.9104776521        5.0541095790
  C        25.0565873672       18.9124633389        4.1051607253
  C        23.8435554085       18.9369204803        3.4193900391
  C        22.8525234724       17.9634291096        3.6602948490
  C        23.1091912667       16.9833152173        4.6380769082
  C        24.3241630021       16.9529676758        5.3213207807
  C        21.5789400457       17.9542588341        2.8960361675
  C        21.5796382131       17.9424546628        1.4731593180
  C        22.7857896204       17.8298251550        0.7119630877
  C        34.4483725554       17.1936599884        5.9208176964
  C        35.7417788357       17.1406534128        5.1805637869
  C        35.9668158926       16.1447064722        4.2171303093
  C        37.1446984689       16.1358148985        3.4758718820
  C        38.1310174209       17.1189873348        3.6827607063
  C        37.9122466618       18.0935177728        4.6746222962
  C        36.7300812642       18.1096953825        5.4107534363
  C        39.3839742309       17.1281230843        2.8950114872
  C        39.3781284173       17.1316419097        1.4738319089
  C        38.1691466287       17.2340506546        0.7161963776
  C        20.3329829853       17.9577548916        0.7644308348
  C        20.3539205710       17.9499864570        3.5783345132
  C        34.4791386283       17.2483837245       10.1845015034
  C        35.7805619264       17.1696648810       10.9067348465
  C        36.0135737263       16.1590113107       11.8516902645
  C        37.1984759363       16.1406921683       12.5815705799
  C        38.1798611487       17.1300704762       12.3815512617
  C        37.9559510995       18.1151442465       11.4021953266
  C        36.7679214511       18.1398960538       10.6773651222
  C        39.4258933873       17.1457859144       13.1779955240
  C        39.3996784388       17.1417564598       14.5985437665
  C        38.1793777693       17.2376003084       15.3392196784
  C        35.1266003665       26.6419136490       15.3027468797
  C        35.1728059034       26.6598039357       12.4932953403
  C        26.5773626061       17.8303215426       10.3266307225
  C        25.2611994671       17.8825861049       11.0299814622
  C        24.9947488775       18.8982762045       11.9606474301
  C        23.7760522244       18.9300941079       12.6330011851
  C        22.7948007868       17.9462576725       12.3984898071
  C        23.0552944932       16.9556069521       11.4343345291
  C        24.2744476994       16.9218162717       10.7600343740
  C        21.5309864090       17.9314916564       13.1720805821
  C        21.5547115365       17.9285773836       14.5937647743
  C        22.7739481089       17.8228478067       15.3355804669
  C        14.0474004663       17.8298279582       10.2883187393
  C        15.3522593445       17.8901694439       11.0124441127
  C        15.6072547207       18.8959179593       11.9579041769
  C        16.8164633980       18.9209324898       12.6501522379
  C        17.8052724266       17.9431776306       12.4192084285
  C        17.5550414731       16.9616172414       11.4415541428
  C        16.3451634957       16.9319979829       10.7508103769
  C        19.0746106037       17.9313654447       13.1880818993
  C        19.0733058472       17.9319325208       14.6106802841
  C        17.8666344037       17.8302266434       15.3720871403
  C        46.8073833077       17.2201640278       10.1593970984
  C        45.5196590356       17.1631704378       10.9080744648
  C        45.3139829267       16.1880881667       11.8959479435
  C        44.1340228629       16.1753509767       12.6344444666
  C        43.1316002953       17.1378919770       12.4058148831
  C        43.3349683943       18.0934285902       11.3922899871
  C        44.5156166584       18.1099918406       10.6549125219
  C        41.8790890443       17.1504757281       13.1934188834
  C        41.8835565605       17.1450812906       14.6148237534
  C        43.0919465882       17.2433257650       15.3739801853
  C        20.3200005290       17.9491518930       15.3190962177
  C        20.2988615830       17.9132394998       12.5058310485
  C        46.7871876471       17.2315324462        5.8903313786
  C        45.4840607856       17.1280319172        5.1757332578
  C        45.2640795399       16.1306854369        4.2140897296
  C        44.0764473580       16.1082458574        3.4876108215
  C        43.0812040454       17.0800157387        3.7071206906
  C        43.2910258079       18.0467283457        4.7077417245
  C        44.4798987982       18.0756331809        5.4289865189
  C        41.8362771559       17.1050590155        2.9101993168
  C        41.8618877897       17.1200606965        1.4898400299
  C        43.0817466558       17.2288128870        0.7504633873
  C        46.1535192542       26.6372515684        0.7262588342
  C        46.1626805849       26.6562188335        3.5358992015
  C        14.0463237034       17.8322366286        5.7083305706
  C        15.3673693485       17.9085953572        5.0173493928
  C        15.6391954294       18.9256996732        4.0899522545
  C        16.8680129582       18.9662854590        3.4348117943
  C        17.8535573330       17.9889165856        3.6806439539
  C        17.5883677233       17.0004482229        4.6460625022
  C        16.3615189880       16.9594368451        5.3049104478
  C        19.1212676513       17.9690486337        2.9114418959
  C        19.0977552942       17.9507297210        1.4895621527
  C        17.8784507141       17.8390031122        0.7483713911
  C        28.8138613012       14.0940177421       10.3890016317
  C        28.2072963878       12.9136462645       11.0714620479
  C        28.9409976959       12.1657486989       12.0041439829
  C        28.3488932212       11.0870346787       12.6564331195
  C        27.0090308718       10.7318993682       12.3997851479
  C        26.2974736554       11.4591885338       11.4287334670
  C        26.8874679654       12.5380795322       10.7748219947
  C        26.3461348648        9.6490761133       13.1631306530
  C        26.3417672753        9.6718587082       14.5844093327
  C        26.8503006585       10.7829620850       15.3290985400
  C        32.1815460697       21.2420804198       10.1459067413
  C        32.7718980639       22.4066930426       10.8665083001
  C        32.0341243581       23.0584123898       11.8669185916
  C        32.6021963276       24.1002137259       12.5932148976
  C        33.9244687230       24.5160899629       12.3445474385
  C        34.6444168403       23.8811344635       11.3140517366
  C        34.0786476907       22.8357467873       10.5873075299
  C        34.5533867585       25.5889113772       13.1481049931
  C        34.5401754127       25.5576841101       14.5703555557
  C        34.0303976824       24.4408028084       15.3051783116
  C        25.7323710517        8.5945511439       15.3047190569
  C        25.7037179141        8.6010257483       12.4910701169
  C        32.0766249130       21.2030726951        5.8764985473
  C        32.6440157556       22.3643866135        5.1316106387
  C        31.9253804043       22.9837573273        4.0971025844
  C        32.4985216610       24.0241682960        3.3676209156
  C        33.8043612071       24.4738044029        3.6502949717
  C        34.5025026580       23.8663181269        4.7125890867
  C        33.9352203438       22.8235635819        5.4385849127
  C        34.4487406097       25.5564756191        2.8706300811
  C        34.4852506204       25.5424465178        1.4482244565
  C        34.0033843024       24.4353307067        0.6816288560
  C        40.6250766533       17.1148577366        0.7660071160
  C        40.6060212091       17.1315473353        3.5755463740
  C        28.7500292347       14.0709371167        5.8182627012
  C        28.1484894182       12.9198017431        5.0807388562
  C        28.8870901230       12.2379536569        4.1012742900
  C        28.3159517374       11.1758765523        3.4039151830
  C        26.9897378378       10.7704264485        3.6576571876
  C        26.2689043721       11.4415888729        4.6636263342
  C        26.8386884185       12.5025323405        5.3648430008
  C        26.3539694964        9.6764171797        2.8842057795
  C        26.3463736800        9.6866983797        1.4618701267
  C        26.8492238362       10.7915815730        0.7051257590
  C        18.1355514316        3.1808402216       10.3170826338
  C        17.4062022541        4.2781714731       11.0157091577
  C        16.3901629628        3.9998150793       11.9428603039
  C        15.7424255741        5.0397920092       12.6063855629
  C        16.0946670239        6.3834724146       12.3670484525
  C        17.0843694846        6.6530183482       11.4036296848
  C        17.7334650266        5.6156711465       10.7385594994
  C        15.4703151762        7.4911753485       13.1301246197
  C        15.4855225081        7.4904934595       14.5518491999
  C        16.1869250484        6.4967717179       15.3050211618
  C        42.9457192255       31.8595544206       10.0728166299
  C        43.6460986823       30.7718163000       10.8168618341
  C        44.5918588758       31.0931538208       11.8026857044
  C        45.1975710140       30.0876320156       12.5504007253
  C        44.8709009499       28.7346071231       12.3357586913
  C        43.9447600637       28.4202372746       11.3228600225
  C        43.3359256661       29.4253706820       10.5747994865
  C        45.4886142671       27.6553266449       13.1389119403
  C        45.4928108064       27.6808738580       14.5606116282
  C        44.8056304975       28.6888509871       15.3072432810
  C        14.8565765696        8.5630059529       15.2642146239
  C        14.8751172129        8.5629869656       12.4515411960
  C        42.9463518922       31.9616267046        5.8089941354
  C        43.6915984932       30.8854269909        5.0954131057
  C        44.6565254167       31.1913422405        4.1234676129
  C        45.2781092582       30.1717736890        3.4057348687
  C        44.9540322628       28.8214930531        3.6430801152
  C        44.0201046901       28.5237967570        4.6534169641
  C        43.3917768802       29.5405589759        5.3655721420
  C        45.5631931873       27.7241020791        2.8578542014
  C        45.5334207947       27.7173340944        1.4365548444
  C        44.8269505035       28.7074891264        0.6836383651
  C        35.1010847731       26.6329958718        0.7482734828
  C        35.0551395848       26.6163660055        3.5583061270
  C        18.1487426648        3.2468841448        5.7066945916
  C        17.4301182711        4.3438013008        4.9974009613
  C        16.4146561381        4.0525051694        4.0741287501
  C        15.7663247868        5.0831131805        3.3986992444
  C        16.1212276690        6.4283172129        3.6211575720
  C        17.1128613341        6.7117416430        4.5781310404
  C        17.7605564350        5.6828450243        5.2579257049
  C        15.4907092908        7.5240140696        2.8486845038
  C        15.4965240490        7.5073952700        1.4275388894
  C        16.1931455637        6.5055956403        0.6808391653
  H        10.6726916395       12.4659746757        3.9042878385
  H        11.6949585707       10.5512156805        2.6624172720
  H        15.3916267395       11.1681887334        4.7727230120
  H        14.3512383683       13.0709518980        6.0179064616
  H        13.3765012619       11.6312446641        1.2012985296
  H        50.3229215831       22.7479987333        3.9862771463
  H        49.3198675609       24.6224983727        2.6803679642
  H        45.6430519467       24.1622956457        4.8646288078
  H        46.6638874505       22.2913187631        6.1728805417
  H        47.6304672859       23.5761229798        1.2460966349
  H        14.8723466531        8.5882024288        4.6085770782
  H        50.2871829359       22.7024455500       12.0607611216
  H        49.2692466820       24.5753207156       13.3607153545
  H        45.6112443834       24.1103049029       11.1451466452
  H        46.6533377716       22.2549853004        9.8308496705
  H        47.6083787350       23.5521029132       14.7968259064
  H        40.6624795655       17.1452823060       11.4252726491
  H        48.6873011955       14.0949110245        7.8001037129
  H        10.6816001069       12.4668716102       12.0936746252
  H        11.6899081363       10.5249801722       13.2973478045
  H        15.3934734730       11.1585535175       11.2051086714
  H        14.3650351371       13.0869607231        9.9899006094
  H        13.3761714880       11.6222209548       14.7531462095
  H        47.9303799292       14.2182342709        9.7109941910
  H        47.7801752487       14.3740011798        6.4955608161
  H        49.0854231938       18.5530945991       10.8676853697
  H        10.4165989300       14.1342411584        7.9986997175
  H        24.4920856085        3.0200819652        3.9253217656
  H        25.6464932297        4.8708255829        2.7012110138
  H        23.2757887866        7.7524072082        4.8400413980
  H        22.1399758583        5.8916693616        6.0665795664
  H        23.8468557005        5.7783514381        1.2665023957
  H        36.3639486504       32.1895124381        3.9771220020
  H        35.2196336886       30.3707034280        2.7096574971
  H        37.4685264686       27.4364957880        4.9079234298
  H        38.5935383915       29.2683451026        6.1847657417
  H        36.9944168248       29.4487583499        1.2980924139
  H        25.7711879944        8.6002720719        4.6499483296
  H        36.4614328712       32.2428437663       12.1204527856
  H        35.3490514262       30.4294564805       13.4193517559
  H        37.5307960271       27.4870797984       11.1631522858
  H        38.6179724887       29.3122881208        9.8514169571
  H        37.0316454410       29.4673957442       14.8507427083
  H        46.1093901861       26.5878536300       11.3855651578
  H        44.6680898184       35.1160724600        7.8141098522
  H        24.4430530289        3.0309577003       12.0784312057
  H        25.5858625289        4.8632898066       13.3286567136
  H        23.1859077782        7.7647706594       11.2507511918
  H        22.0553812406        5.9203737494        9.9994557913
  H        23.8224350852        5.7789235306       14.8183517582
  H        44.9534023222       34.3900499737        9.6949427908
  H        44.9013486773       34.2066335881        6.4907792387
  H        40.6656163107       33.2089853960       10.8530085742
  H        23.1507437509        1.9575618974        8.0052576637
  H        25.8142733112       19.6709348471        3.9219761615
  H        23.6480853485       19.7211586765        2.6910886726
  H        22.3565777013       16.2220191343        4.8332002953
  H        24.5314900878       16.1830478171        6.0609627072
  H        23.7277649583       17.7167476311        1.2404584195
  H        35.2053519335       15.3845289939        4.0596407552
  H        37.3180145569       15.3585683291        2.7347317664
  H        38.6680215227       18.8590234922        4.8380165297
  H        36.5424984221       18.8765305767        6.1588120069
  H        37.2275662350       17.3408964277        1.2473142738
  H        20.3604717555       17.9834884439        4.6664368252
  H        35.2511374639       15.3998596794       12.0093097254
  H        37.3783873752       15.3559697969       13.3131510820
  H        38.7093187000       18.8842107168       11.2447253550
  H        36.5712535521       18.9172878506        9.9429164939
  H        37.2456801063       17.3473507102       14.7949778004
  H        35.1484204400       26.6886177295       11.4055857539
  H        28.5071275370       21.0841413022        7.9696171621
  H        25.7552317445       19.6548659372       12.1401862864
  H        23.5699862947       19.7217931530       13.3501371320
  H        22.3060199555       16.1890339286       11.2475155233
  H        24.4913410518       16.1448736342       10.0308597267
  H        23.7064800442       17.7050956609       14.7917001684
  H        28.9947098988       21.7220426328        9.7675893015
  H        29.1505256789       21.7456195297        6.6152537005
  H        32.1284231208       18.6003044385       10.9170746336
  H        27.4074487382       19.0751045139        8.0897732233
  H        14.8472904935       19.6537013849       12.1348941451
  H        17.0103052666       19.7072251629       13.3765891170
  H        18.3079357330       16.1987551137       11.2540332627
  H        16.1407709519       16.1608617830       10.0118334887
  H        16.9244451954       17.7117980430       14.8448746150
  H        46.0955553898       15.4540923654       12.0775130824
  H        43.9732694700       15.4115802311       13.3921079221
  H        42.5685697276       18.8446435760       11.2131227173
  H        44.6907686049       18.8613801099        9.8885738678
  H        44.0331103829       17.3630672316       14.8449679038
  H        20.2926434394       17.9382560713       11.4175748404
  H        46.0394524165       15.3887587929        4.0373561637
  H        43.9070278495       15.3353805571        2.7410552918
  H        42.5265190382       18.8008472710        4.8825678217
  H        44.6656401680       18.8407467647        6.1786927685
  H        44.0151028004       17.3361949637        1.2954890379
  H        46.1995611450       26.6828737780        4.6233419958
  H        52.7413252997       21.0627786673        8.1947490736
  H        14.8776049267       19.6786412531        3.8993352832
  H        17.0773026669       19.7585422635        2.7192320024
  H        18.3400042134       16.2390149088        4.8440383310
  H        16.1423858394       16.1832794896        6.0341689841
  H        16.9451858629       17.7271939844        1.2920405045
  H        52.3230110975       21.6734780459        6.2941162387
  H        52.0136838480       21.7023976406        9.4957929725
  H        49.0684620267       18.6081994426        5.2038755402
  H        13.2478054001       19.0163542306        7.9771658109
  H        29.9729764694       12.4469496315       12.2024641286
  H        28.9189984362       10.5063583244       13.3784623884
  H        25.2622676739       11.1948081270       11.2229043212
  H        26.3349571443       13.1209375460       10.0419474279
  H        27.2129883156       11.6515726372       14.7876894807
  H        31.0206931865       22.7248515437       12.0763163209
  H        32.0226845003       24.6010558531       13.3653542739
  H        35.6683595037       24.1913994868       11.1160692765
  H        34.6411984712       22.3212719508        9.8116848277
  H        33.6789078284       23.5679007082       14.7619909479
  H        25.7264577699        8.5848409903       11.4028358994
  H        30.9232715743       22.6291434559        3.8660797219
  H        31.9317111089       24.5032472240        2.5723250976
  H        35.5130992034       24.1999062736        4.9388785913
  H        34.4827332075       22.3351341905        6.2411143729
  H        33.6326689246       23.5581782626        1.2037140799
  H        40.5987330414       17.0994201867        4.6633647758
  H        32.5116514806       14.1488275512        8.2508509359
  H        29.9091752651       12.5553244978        3.9061195582
  H        28.8976826044       10.6417287934        2.6557697409
  H        25.2427410460       11.1423290896        4.8670739816
  H        26.2782632626       13.0344280297        6.1300951221
  H        27.2100556302       11.6672864427        1.2365293426
  H        33.3017946213       14.1980920334        6.4514751428
  H        33.4108172977       14.3915777730        9.6017232018
  H        32.1011964579       18.5313354336        5.1740687432
  H        30.2206588976       14.1897500340        8.0823047410
  H        16.1178322927        2.9633233310       12.1289538502
  H        14.9527157001        4.8203803785       13.3217517131
  H        17.3670805614        7.6858706637       11.2108025195
  H        18.5157278586        5.8182915657       10.0109411245
  H        16.7533403168        5.7393367120       14.7714993672
  H        44.8282843478       32.1402402209       11.9766584234
  H        45.9376164644       30.3413954226       13.3061691678
  H        43.6817804407       27.3781950191       11.1530269700
  H        42.5990047495       29.1900923726        9.8104056343
  H        44.2301999384       29.4365552933       14.7689228993
  H        14.8514363109        8.5462083569       11.3633199705
  H        44.9002665948       32.2340260623        3.9322788650
  H        46.0252606736       30.4130165501        2.6527423782
  H        43.7628030580       27.4840895258        4.8446432467
  H        42.6448765780       29.3178051882        6.1236413097
  H        44.2684100644       29.4703234638        1.2182738130
  H        35.0000227547       26.6328697381        4.6451922592
  H        36.6050323848       35.1338734527        8.1807251632
  H        16.1433958282        3.0129326350        3.9046446155
  H        14.9738053386        4.8562298434        2.6888416307
  H        17.3965848405        7.7471907960        4.7547790998
  H        18.5436479467        5.8932781237        5.9824654956
  H        16.7644353405        5.7552582697        1.2192998030
  H        36.2786412412       34.4822579681        6.2732035624
  H        36.3804428380       34.2092828935        9.4999462465
  H        40.5786020256       33.2016289433        5.1540165102
  H        17.4710183696        1.9468733746        7.9740208337
  H        29.1666096583       19.2475916744       12.4769635961
  H        29.0310475203       19.1865074387        3.6494846759
  H        32.3439340831       16.3854646748        3.7554447777
  H        32.2990114788       16.4427891808       12.4177868451
  H        28.5988430042       17.9174396343       14.7539874792
  H        30.4973165656       15.4041030162       14.5343286636
  H        32.0783495271       20.0909854619        1.0644069996
  H        28.1027988279       17.1176764052        1.9983297860
  H        30.9764363101       20.3220704684       13.8735472185
  H        18.8519659909        0.8681713665       12.3353926921
  H        40.5279876721       35.2290772625        3.9521452023
  H        42.3233754773       34.4182943214        3.5908570462
  H        22.0871915731        0.6922400833       12.3513392562
  H        11.5961807352       18.7133965530       12.3832137961
  H        52.2650525030       18.4315205830        3.6769158513
  H        49.2558184123       16.4768394032        3.5842583346
  H        10.1500027805       15.7982114385       12.2928233400
  H        50.8504624538       17.6923276251        3.9542154140
  H        10.0460179621       17.3945370833       12.0519383877
  H        20.2130283243        0.0017175385       12.0422160373
  H        39.1835797870       36.1243996101        3.6863836901
 Ni        30.1849298464       17.2805896117        3.0006591046
 Ni        29.9301968025       16.8450147940        0.4960769809
 Ni        30.3093149829       19.1142282894       -0.2507707176
 Ni        30.3149722174       17.4928785663       13.2430681079
  O        10.6500187795       14.3650859084        5.4858991013
  O        12.6132201700       14.6575677247        6.5839123955
  O        49.1482172041       16.8458687084        7.9897363062
  O        50.3503867310       20.9355826249        5.6479748564
  O        48.3486574312       20.5933215680        6.6658711138
  O        11.0520631899       17.0537220234        6.5007907164
  O        50.3211398980       20.8816114071       10.4068414263
  O        48.3468169255       20.5867804435        9.3272090674
  O        49.5443226468       18.2484464999       10.0681912214
  O        12.3593081054       18.6246194622        7.9996702663
  O        48.6933119795       14.1485284665        6.7513449322
  O         8.2099698815       14.2103679723        9.3224977968
  O        10.7354475415       14.5067671589       10.6643007471
  O        12.5718613152       14.5828704208        9.3284804606
  O        22.8447588002        2.0427309449        5.4871811441
  O        21.6069224416        3.5931482612        6.5883401172
  O        42.0578924641       34.1371610046        7.9789151060
  O        37.9812731846       33.1363008044        5.5723297529
  O        39.2172006700       31.5750093340        6.6657616172
  O        20.3083447012        1.0395974349        6.5021515559
  O        38.0244852506       33.1851547844       10.4155745530
  O        39.2184285064       31.5831059076        9.3273358340
  O        40.6521918066       33.7693291848       10.0601378108
  O        18.2558152334        1.3758608119        7.9967484263
  O        44.6222059084       35.1005234389        6.7588253968
  O        24.2053555982       -0.0000108066        9.3207724797
  O        22.7530981925        2.0570684220       10.5836339566
  O        21.6251524436        3.5967421434        9.3439735213
  O        27.4996861133       18.7543187780        5.4946671282
  O        26.7639170198       16.9370609108        6.6522928987
  O        30.6660373966       19.4030528346        8.0606180665
  O        33.5897543930       16.2765478011        5.6624491189
  O        34.2795355213       18.1650165035        6.7336856230
  O        29.5757015304       17.0575584926        6.5789657816
  O        33.6127537767       16.3313339558       10.4236742511
  O        34.3107414866       18.2414622674        9.4045038996
  O        31.7133414086       18.3175015293       10.0862713023
  O        30.3223536769       15.1557419114        8.0867398647
  O        28.5524551744       21.0321337965        6.9013197577
  O        28.5148182446       20.9540639376        9.4131810885
  O        27.4668569342       18.6792340040       10.6597776344
  O        26.6958973426       16.9308384055        9.4136180600
  O        13.1487153912       18.6930696544       10.5872724723
  O        13.9198679389       16.9163879984        9.4053455059
  O        50.5967102283       19.3503558818        8.0204273881
  O        47.6839205795       16.3269104904       10.4171914621
  O        46.9524580654       18.1761076333        9.3241296471
  O        11.0702181507       17.0153632681        9.4895664347
  O        47.6765299888       16.3354663490        5.6532610969
  O        46.9286705508       18.2359396955        6.6654687084
  O        49.5689955076       18.3176867355        5.9822885771
  O        10.3188094798       15.1000523596        7.9970729552
  O        52.6707877486       21.0278645281        9.2418211192
  O        12.1468860116       20.8911873382        6.6732398392
  O        13.1082630756       18.6136925600        5.3255371220
  O        13.9579139550       16.9873428232        6.6648712395
  O        29.9939658282       14.4507370068       10.7277022375
  O        28.0883077909       14.6548326455        9.4935839395
  O        32.1373702493       16.8484310102        8.0759690148
  O        30.9660944710       20.9481141487       10.4097344644
  O        32.9467802878       20.6048207249        9.3359722943
  O        29.5749606756       17.0732816356        9.5784450947
  O        30.8504798641       20.8869632835        5.6601224714
  O        32.8707075714       20.5865164681        6.6638746922
  O        31.6799563491       18.2536634295        6.0022798587
  O        28.2918073238       18.6741622725        8.0755223408
  O        32.4920556362       14.2144984399        9.3289744799
  O        32.4057182110       14.2136358823        6.8265950105
  O        29.9206990261       14.4484495517        5.4874708344
  O        28.0397490318       14.5895474509        6.7517573464
  O        17.8892381949        1.9665830181       10.6627723676
  O        18.9563250383        3.5271119794        9.4079067219
  O        39.1685421775       34.1386043504        7.9970800304
  O        43.2802271053       33.0588932384       10.3316898624
  O        42.0344411119       31.5064262227        9.2415821081
  O        20.3175353381        1.0367792703        9.4800447902
  O        43.2761104706       33.1825295052        5.5748731956
  O        42.0052585366       31.5840659341        6.5829800310
  O        40.5788727836       33.7748243251        5.9357753267
  O        22.3672925165        1.3847815478        7.9979232361
  O        36.6727868944       35.0997133076        9.2333174945
  O        16.4456499827        0.0641480856        6.6682147360
  O        17.9365142386        2.0433845313        5.3264050224
  O        18.9192586878        3.5931245724        6.6659565526
  O        29.8247692465       18.8248789877        4.0864650623
  O        29.9047833601       18.8399084324       11.9792492183
  O        31.4281856332       16.3392511814        4.0775969932
  O        31.3881886707       16.4140201976       12.0755828896
  O        28.8846268538       17.6549954488        1.7538200986
  O        30.5841019541       16.3347023163       14.8062762557
  O        31.0496787655       20.5163560980       14.8266481023
  O        31.1722497815       19.8515553715        1.3342031514
  O        29.2316175636       18.5441503830       14.3442674411
  O        39.4567665362       35.2438211716        4.0020153518
  O        19.1400274989        0.0037632568       11.9906146628
  O        41.9695762071       35.1726627699        4.0871505036
  O        21.6910269286       -0.0693628434       11.8957935823
  O        51.3652781014       18.6143135556        4.0053868303
  O        10.7507607893       18.7471744246       11.9049522777
  O        50.0801216777       16.4127817854        4.0917053473
  O         9.5241858342       16.4830922509       11.9912108013
 Zr         9.2979988446       16.0526037163        6.1826151297
 Zr        49.8373549149       16.0065301495        9.7461928781
 Zr        22.0730411300        0.0298611866        6.1890285403
 Zr        42.4606019876       35.1534404379        9.8009850153
 Zr        29.5997800578       19.0870024317        6.2915032394
 Zr        29.5977402841       19.1741517000        9.8490954286
 Zr        11.0387874479       19.0519246564        9.8278709263
 Zr        11.0446657346       19.1548075879        6.2507388802
 Zr        31.3541551411       16.1041058236        9.8794959058
 Zr        31.3912758146       16.0075851111        6.2813927269
 Zr        18.6008499332       -0.0018756063        9.7632050665
 Zr        18.5064045900       -0.0081415456        6.2135069733
 Zr        12.3031615749       16.3235113998        7.9903298559
 Zr        48.6180786855       18.8336671260        8.0103084505
 Zr        20.3158053366        2.4737061898        7.9904976488
 Zr        40.6426448820       32.6865964343        7.9780334923
 Zr        28.3421195928       16.3329043854        8.0862184636
 Zr        32.6345939576       18.8392337228        8.0483282512
  H        31.2120946495       19.1873837316        2.0703694034
