     568
 i =       94, E =     -4744.3731304953
  C        11.8586173732       14.0535559507        5.7416035472
  C        12.4561064709       12.8905256287        5.0233259415
  C        11.7045270529       12.1718966260        4.0813593546
  C        12.2808617726       11.1096795024        3.3889772160
  C        13.6212966876       10.7395643914        3.6169978593
  C        14.3543119895       11.4427881476        4.5908356646
  C        13.7814595888       12.5077700472        5.2823668127
  C        14.2608571778        9.6489268179        2.8435908886
  C        14.2563199757        9.6569090904        1.4218853775
  C        13.7432135265       10.7590487919        0.6679572861
  C        49.1266579843       21.2332305530        5.8796743117
  C        48.5499323680       22.4011075977        5.1526094773
  C        49.3000520713       23.0685674069        4.1717564795
  C        48.7331338131       24.1077092168        3.4385700760
  C        47.4025127051       24.5092158093        3.6670181171
  C        46.6714344068       23.8601506410        4.6803214168
  C        47.2338724979       22.8152430375        5.4096791242
  C        46.7723384031       25.5869494712        2.8697360937
  C        46.7615267883       25.5574400513        1.4479690392
  C        47.2615566166       24.4423973654        0.7044656442
  C        14.8602713528        8.5705656089        0.7086299190
  C        14.8915028321        8.5968917392        3.5202371485
  C        49.1130647811       21.2034859981       10.1453485676
  C        48.5277121316       22.3648026118       10.8724467402
  C        49.2670667245       23.0257896257       11.8651045955
  C        48.6907164831       24.0603242097       12.5965550421
  C        47.3601589284       24.4568084592       12.3585943167
  C        46.6395798107       23.8115844310       11.3353893711
  C        47.2131497246       22.7756873889       10.6036055633
  C        46.7217471633       25.5317898297       13.1496318826
  C        46.7337265459       25.5282669571       14.5713316943
  C        47.2492680888       24.4290993996       15.3277049604
  C        40.6209223116       17.0926939123       15.3095448002
  C        40.6312270442       17.1034765619       12.4998707516
  C        11.8828496993       14.0865360472       10.2854601345
  C        12.4721264593       12.9106032191       10.9896288402
  C        11.7146765988       12.1776273468       11.9159608508
  C        12.2812063188       11.0951383500       12.5843903097
  C        13.6199110550       10.7211370793       12.3523491482
  C        14.3577640868       11.4364117104       11.3912301544
  C        13.7923949844       12.5176131602       10.7185359222
  C        14.2535416794        9.6244175451       13.1227902656
  C        14.2524441237        9.6445035587       14.5446330314
  C        13.7426538570       10.7534969369       15.2917005138
  C        22.5107062901        3.2434696624        5.7529189992
  C        23.2240577462        4.3482857668        5.0515296365
  C        24.2220097065        4.0669186774        4.1069399176
  C        24.8485465808        5.1055608584        3.4233382018
  C        24.4922775239        6.4472195957        3.6644850602
  C        23.5220334106        6.7202539421        4.6457760877
  C        22.8910640553        5.6833564877        5.3279054074
  C        25.0995251352        7.5523048820        2.8887569182
  C        25.0779993720        7.5428228940        1.4672741606
  C        24.3762040488        6.5437007599        0.7206083935
  C        38.2978633213       31.9279662063        5.8517188604
  C        37.5561043096       30.8404054547        5.1500501333
  C        36.5907903752       31.1490625259        4.1789752774
  C        35.9594760930       30.1324787531        3.4675354338
  C        36.2780254444       28.7805752733        3.7033239444
  C        37.2127507727       28.4794027992        4.7121387236
  C        37.8479793025       29.4949504355        5.4232580934
  C        35.6665173893       27.6935618872        2.9040579755
  C        35.7042968198       27.7092923829        1.4822778712
  C        36.4161808364       28.7104110260        0.7489164079
  C        25.7061903418        8.6101369965        0.7479725389
  C        25.6928274121        8.6287658801        3.5600847220
  C        38.3297169266       31.9606327876       10.1601072259
  C        37.6113369737       30.8887691985       10.9086891392
  C        36.6782230702       31.2000722562       11.9099667739
  C        36.0661692297       30.1844252068       12.6424668189
  C        36.3719034737       28.8301934389       12.3986751293
  C        37.2857353193       28.5288793331       11.3698257271
  C        37.8996102354       29.5410378749       10.6382127057
  C        35.7554145607       27.7330244181       13.1810379036
  C        35.7495807634       27.7295188953       14.6036967089
  C        36.4364249710       28.7210614528       15.3722673892
  C        46.1356910931       26.6208796976       15.2814733218
  C        46.0875693820       26.5800118339       12.4735781288
  C        22.4612234821        3.2549168535       10.2566064667
  C        23.1577078103        4.3626809454       10.9784124651
  C        24.1624303651        4.0743780879       11.9155964429
  C        24.7929892438        5.1030782500       12.6111004760
  C        24.4385141597        6.4491227142       12.3916095722
  C        23.4569384312        6.7308352281       11.4227622267
  C        22.8218246141        5.7023056644       10.7276882546
  C        25.0712868378        7.5454621620       13.1660432202
  C        25.0641513135        7.5386191061       14.5885821065
  C        24.3677241922        6.5428771174       15.3438539954
  C        26.6148434408       17.8583479915        5.7831944325
  C        25.3085997809       17.9064450115        5.0599344773
  C        25.0430389113       18.9122804254        4.1167841096
  C        23.8308989668       18.9313827508        3.4294094991
  C        22.8467659784       17.9498044236        3.6647067621
  C        23.1076715988       16.9674492865        4.6389218134
  C        24.3221076447       16.9417187232        5.3229083133
  C        21.5741013819       17.9364688419        2.8994276377
  C        21.5754468554       17.9190388634        1.4769396022
  C        22.7818612222       17.8006341517        0.7172383938
  C        34.4405040946       17.1954710235        5.9194410432
  C        35.7328765480       17.1451226632        5.1754999656
  C        35.9362767190       16.1748026067        4.1817421852
  C        37.1158152903       16.1607482674        3.4428847795
  C        38.1245519037       17.1154455815        3.6776185019
  C        37.9238508184       18.0662208381        4.6964860556
  C        36.7412743516       18.0861107246        5.4325362267
  C        39.3773269270       17.1218184142        2.8881559303
  C        39.3693424527       17.1270344900        1.4661164997
  C        38.1605683611       17.2482115346        0.7108354572
  C        20.3292774148       17.9349095362        0.7676129772
  C        20.3492682506       17.9362700934        3.5812856188
  C        34.4407233996       17.2367005563       10.1907967111
  C        35.7418692858       17.1348426463       10.9111892378
  C        35.9450056288       16.1593523823       11.8987355164
  C        37.1354022357       16.1296147326       12.6210193583
  C        38.1516708256       17.0738665039       12.3755044714
  C        37.9549733416       18.0211284170       11.3531516927
  C        36.7639468914       18.0564392780       10.6345807965
  C        39.4012441251       17.0914090176       13.1680015223
  C        39.3815312054       17.1121459044       14.5894245902
  C        38.1664172359       17.2397094712       15.3339468564
  C        35.1109304828       26.6522740084       15.3042771905
  C        35.1706382311       26.6609072554       12.4946651461
  C        26.5692526962       17.8272855067       10.3243066124
  C        25.2557247922       17.8703837999       11.0320079498
  C        24.9924754337       18.8755284229       11.9748427067
  C        23.7747095928       18.9021882428       12.6483909785
  C        22.7911490866       17.9232004132       12.4032692012
  C        23.0489107410       16.9425251247       11.4282712912
  C        24.2674300820       16.9140440085       10.7525968427
  C        21.5277280490       17.9060205319       13.1764299388
  C        21.5514818180       17.9006268992       14.5980371289
  C        22.7700278609       17.7908457249       15.3407840843
  C        14.0461907223       17.8287592521       10.2888467107
  C        15.3505941473       17.8855042841       11.0145407578
  C        15.6078336401       18.8895789230       11.9610022901
  C        16.8167553413       18.9102199138       12.6540385312
  C        17.8025238957       17.9296197804       12.4225746384
  C        17.5499947011       16.9495875885       11.4441309229
  C        16.3405268072       16.9244042536       10.7526948220
  C        19.0715540198       17.9128375884       13.1916233422
  C        19.0700250587       17.9114637725       14.6140513692
  C        17.8627708906       17.8126512008       15.3748974341
  C        46.8024041388       17.2161966140       10.1569310126
  C        45.5091668939       17.1462397532       10.8972311035
  C        45.3050054482       16.1643739742       11.8793250248
  C        44.1211219470       16.1372784144       12.6117817328
  C        43.1102575836       17.0917782745       12.3849841458
  C        43.3109672259       18.0521150372       11.3748140335
  C        44.4958087031       18.0832426371       10.6431450687
  C        41.8572591023       17.0970957420       13.1752485084
  C        41.8660441223       17.1029765032       14.5974894325
  C        43.0764733528       17.2027523548       15.3531954781
  C        20.3166122650       17.9246693278       15.3226052625
  C        20.2958048245       17.8925470068       12.5096669070
  C        46.7851410042       17.2324813846        5.8863734374
  C        45.4839980178       17.1289712653        5.1662893985
  C        45.2664088189       16.1307396439        4.2042957648
  C        44.0793490502       16.1038858712        3.4762456082
  C        43.0796464315       17.0724744519        3.6920848852
  C        43.2884662908       18.0416640166        4.6912469238
  C        44.4764048138       18.0746411347        5.4148350147
  C        41.8320364833       17.0920388728        2.8965926716
  C        41.8533397971       17.0990059685        1.4752564663
  C        43.0705388429       17.1977779802        0.7302193712
  C        46.1535067731       26.6373216015        0.7262272776
  C        46.1622095440       26.6559612087        3.5358789761
  C        14.0447193706       17.8314246589        5.7088064263
  C        15.3653966089       17.9053216738        5.0176980490
  C        15.6392011264       18.9221217900        4.0908569126
  C        16.8679957293       18.9593845492        3.4357386311
  C        17.8501103940       17.9789919368        3.6820419404
  C        17.5830493426       16.9908138508        4.6468886696
  C        16.3562960994       16.9530861989        5.3055084998
  C        19.1173651922       17.9549301868        2.9134736167
  C        19.0939377285       17.9324600809        1.4920148050
  C        17.8743662197       17.8221778378        0.7510797847
  C        28.8103628585       14.0887291092       10.3892638803
  C        28.1995466388       12.9127262422       11.0738412514
  C        28.9306864818       12.1604224358       12.0049364237
  C        28.3339508625       11.0847105645       12.6574880115
  C        26.9923303152       10.7369703100       12.4016515744
  C        26.2827226925       11.4683943598       11.4324469050
  C        26.8771611795       12.5448526845       10.7788566720
  C        26.3260572877        9.6560541057       13.1638503836
  C        26.3176011316        9.6801743317       14.5848406518
  C        26.8299629291       10.7888833036       15.3307969044
  C        32.1794582699       21.2398037261       10.1494774731
  C        32.7717837457       22.4060380782       10.8683141385
  C        32.0207388735       23.0840602154       11.8410135745
  C        32.5879821065       24.1255361027       12.5687609737
  C        33.9225496474       24.5170776879       12.3466844495
  C        34.6560687638       23.8576101138       11.3421428358
  C        34.0911090501       22.8110976497       10.6154305260
  C        34.5475299230       25.5929505933       13.1503185111
  C        34.5258885768       25.5670241048       14.5724425704
  C        34.0115259467       24.4526832860       15.3080595400
  C        25.7037532102        8.6044162407       15.3033185891
  C        25.6866789645        8.6075480154       12.4901439678
  C        32.0818585691       21.2032642586        5.8782204056
  C        32.6480250972       22.3682706912        5.1377924850
  C        31.9132311177       23.0120836403        4.1301258109
  C        32.4836808327       24.0525646898        3.3989011536
  C        33.8024034651       24.4786081652        3.6545741190
  C        34.5177209194       23.8479807635        4.6911859221
  C        33.9529511713       22.8042780393        5.4183782066
  C        34.4419053863       25.5633121277        2.8728322098
  C        34.4700556040       25.5527963734        1.4503216436
  C        33.9833606316       24.4466874627        0.6847827092
  C        40.6141759366       17.0955824913        0.7544974960
  C        40.6026142767       17.1208907577        3.5645553916
  C        28.7320949290       14.0599109940        5.8227038890
  C        28.1225371974       12.9163548976        5.0829149478
  C        28.8702248706       12.1996026812        4.1356958308
  C        28.2901268580       11.1457876541        3.4337976660
  C        26.9478107018       10.7797121416        3.6573220229
  C        26.2169998434       11.4822253309        4.6337875024
  C        26.7944767869       12.5385275293        5.3356027590
  C        26.3101332281        9.6879522852        2.8829556475
  C        26.3114310115        9.6965165166        1.4612959421
  C        26.8252548689       10.7977355939        0.7068945856
  C        18.1353046675        3.1807385455       10.3171300149
  C        17.4058739974        4.2780224007       11.0157113282
  C        16.3903942174        3.9996088572       11.9434611617
  C        15.7426100488        5.0395617058       12.6069711403
  C        16.0942278460        6.3833139400       12.3670654293
  C        17.0833007635        6.6528797484       11.4029933952
  C        17.7324366663        5.6155662577       10.7379334001
  C        15.4699513029        7.4910397724       13.1301169257
  C        15.4853915171        7.4904736413       14.5518328134
  C        16.1869810106        6.4968922836       15.3050191371
  C        42.9457388525       31.8593654909       10.0728389225
  C        43.6459994283       30.7717185818       10.8168238145
  C        44.5917380936       31.0930212794       11.8027137758
  C        45.1974045002       30.0874637385       12.5503742804
  C        44.8707583470       28.7344183552       12.3356907457
  C        43.9446678984       28.4200971715       11.3227149363
  C        43.3358840307       29.4252505556       10.5746574748
  C        45.4884402347       27.6551637588       13.1388719152
  C        45.4928474662       27.6809282882       14.5605624929
  C        44.8057174778       28.6889402785       15.3071900274
  C        14.8564925350        8.5630162654       15.2641896927
  C        14.8745828999        8.5627636677       12.4515250245
  C        42.9463903120       31.9614282402        5.8089933713
  C        43.6915293652       30.8853387237        5.0954754673
  C        44.6563888803       31.1912397443        4.1234186907
  C        45.2778889238       30.1716533841        3.4056908044
  C        44.9538436532       28.8213457851        3.6430692792
  C        44.0200039496       28.5236782928        4.6535129346
  C        43.3917475279       29.5404455846        5.3656996007
  C        45.5629893017       27.7239962020        2.8578234665
  C        45.5334229603       27.7174048379        1.4365238162
  C        44.8270379230       28.7075967038        0.6835825085
  C        35.0850226789       26.6436796103        0.7497933759
  C        35.0522067488       26.6206759689        3.5600716956
  C        18.1484960471        3.2468222839        5.7066725253
  C        17.4297978013        4.3437173333        4.9974184578
  C        16.4148135912        4.0524058212        4.0736295634
  C        15.7664688994        5.0830157420        3.3982159205
  C        16.1208682978        6.4282810027        3.6211465753
  C        17.1119518639        6.7116948183        4.5787045591
  C        17.7596432861        5.6828048389        5.2584939758
  C        15.4904334791        7.5239978689        2.8486731691
  C        15.4964571254        7.5074450395        1.4275323700
  C        16.1932194351        6.5057401781        0.6808340937
  H        10.6724957897       12.4662657018        3.9041427324
  H        11.6946131451       10.5514062161        2.6622442792
  H        15.3912019731       11.1678593250        4.7728614490
  H        14.3507702742       13.0707319733        6.0181206419
  H        13.3761527489       11.6311577955        1.2012596697
  H        50.3228124585       22.7486423675        3.9871292364
  H        49.3196571232       24.6230855844        2.6810998794
  H        45.6418388682       24.1607005611        4.8632859631
  H        46.6627067878       22.2898764604        6.1715728598
  H        47.6300140133       23.5759739814        1.2461300966
  H        14.8716343551        8.5880244174        4.6085399269
  H        50.2872134262       22.7031594900       12.0598260296
  H        49.2691594110       24.5759821460       13.3598808101
  H        45.6100141399       24.1084699015       11.1466359871
  H        46.6521166016       22.2532597332        9.8323754735
  H        47.6079782352       23.5519484782       14.7968142512
  H        40.6346232803       17.0655944482       11.4121732589
  H        48.6869781651       14.0950006608        7.7999940416
  H        10.6812779235       12.4668806738       12.0935061540
  H        11.6894234380       10.5248918052       13.2972148057
  H        15.3930778240       11.1582498429       11.2050542054
  H        14.3646228131       13.0867712037        9.9897528717
  H        13.3757725068       11.6220784905       14.7530470380
  H        47.9300476557       14.2185906929        9.7107214286
  H        47.7799290197       14.3735767237        6.4951708312
  H        49.0824127388       18.5519447034       10.8669415514
  H        10.4157179317       14.1343848687        7.9987530737
  H        24.4841934888        3.0280987429        3.9191143331
  H        25.6230286085        4.8876809969        2.6911351010
  H        23.2396799710        7.7533331860        4.8376632012
  H        22.1197787150        5.8839269306        6.0675131503
  H        23.8127058504        5.7883336386        1.2605139595
  H        36.3600136459       32.1935648115        3.9833985289
  H        35.2117817049       30.3769290406        2.7161807088
  H        37.4668602814       27.4387472525        4.9028698845
  H        38.5949492161       29.2683423109        6.1804441370
  H        36.9781705178       29.4601200958        1.2981325981
  H        25.7207678275        8.6150914377        4.6481448669
  H        36.4518176809       32.2447576891       12.1109845341
  H        35.3361316247       30.4332780127       13.4095247180
  H        37.5358327252       27.4881793039       11.1744063350
  H        38.6256181693       29.3112106170        9.8620915238
  H        37.0148372705       29.4786366507       14.8512443112
  H        46.1086631074       26.5872392290       11.3855352755
  H        44.6680896513       35.1160068663        7.8139654230
  H        24.4395844243        3.0356192667       12.0803725785
  H        25.5756700137        4.8730333824       13.3308755764
  H        23.1721455169        7.7658286754       11.2448081661
  H        22.0480236016        5.9162346617        9.9940223577
  H        23.7970572667        5.7874094919       14.8115523413
  H        44.9532057477       34.3897623968        9.6947533645
  H        44.9012835448       34.2065776304        6.4906255283
  H        40.6655641614       33.2084753509       10.8529627485
  H        23.1504578455        1.9571940831        8.0050368377
  H        25.7961238606       19.6767089884        3.9389028633
  H        23.6303278782       19.7169710102        2.7039561667
  H        22.3592673429       16.2009872195        4.8298481475
  H        24.5340227691       16.1696081540        6.0589191441
  H        23.7229506087       17.6858874153        1.2472187652
  H        35.1515337811       15.4448196398        3.9978366447
  H        37.2721459429       15.4014763906        2.6797658168
  H        38.6939362124       18.8122789680        4.8815264471
  H        36.5700566630       18.8355874709        6.2018005692
  H        37.2228018379       17.3820357386        1.2426663536
  H        20.3551780091       17.9735306263        4.6692514447
  H        35.1521951063       15.4424364180       12.0992187486
  H        37.2905069061       15.3710696570       13.3850915775
  H        38.7325238089       18.7566179144       11.1576114303
  H        36.5919191259       18.8075724735        9.8675669593
  H        37.2328589491       17.3668021497       14.7932520584
  H        35.1536700181       26.6844727366       11.4066761057
  H        28.5014628297       21.0951287682        7.8946230415
  H        25.7547331925       19.6281905799       12.1623549036
  H        23.5700400129       19.6864059954       13.3740350821
  H        22.2976611479       16.1799138717       11.2333112901
  H        24.4823560171       16.1454976286       10.0139646111
  H        23.7020896436       17.6687342585       14.7970928797
  H        28.9963507307       21.7266214055        9.7519933692
  H        29.1662651787       21.7333489467        6.5537897899
  H        32.0829587666       18.5612642546       10.9921924110
  H        27.4069895058       19.0836734116        8.0881944465
  H        14.8499021489       19.6493709032       12.1382132796
  H        17.0125865002       19.6951489269       13.3814207449
  H        18.3006114533       16.1844940037       11.2565945324
  H        16.1338685390       16.1545958366       10.0129879196
  H        16.9205550470       17.6965114491       14.8472074116
  H        46.0916102930       15.4362023890       12.0625818637
  H        43.9650489362       15.3686731737       13.3655823356
  H        42.5388939053       18.7971934778       11.1941942899
  H        44.6660199175       18.8397889961        9.8806471772
  H        44.0169172132       17.3149730601       14.8213242877
  H        20.2898945624       17.9204098462       11.4214858521
  H        46.0428877704       15.3895356905        4.0292473739
  H        43.9136107377       15.3282512355        2.7317232936
  H        42.5223118107       18.7944823785        4.8646208613
  H        44.6576513682       18.8415942946        6.1638493609
  H        44.0065771930       17.3051064835        1.2706763415
  H        46.1987839384       26.6823662399        4.6233363029
  H        52.7410402654       21.0626044829        8.1946618556
  H        14.8791999420       19.6767816605        3.9006940934
  H        17.0798845309       19.7507725996        2.7199688192
  H        18.3328758419       16.2274537230        4.8442109618
  H        16.1342660373       16.1775886110        6.0345430742
  H        16.9409120225       17.7131727711        1.2950043950
  H        52.3221278670       21.6731967890        6.2944497637
  H        52.0131156547       21.7020082571        9.4956718916
  H        49.0671184629       18.6078739080        5.2042166290
  H        13.2472083691       19.0165392471        7.9773493470
  H        29.9645815623       12.4335976434       12.2031263696
  H        28.9019665696       10.5006027279       13.3783762873
  H        25.2461274593       11.2087193237       11.2276562037
  H        26.3271333988       13.1313981527       10.0470552869
  H        27.2013857566       11.6539865229       14.7897490008
  H        30.9965147753       22.7681479198       12.0233261667
  H        32.0001541615       24.6490803921       13.3194626508
  H        35.6891915454       24.1493759149       11.1647379391
  H        34.6643007160       22.2771404024        9.8610200136
  H        33.6642842993       23.5797409058       14.7624493448
  H        25.7137241675        8.5902492784       11.4020427470
  H        30.9001698954       22.6746507802        3.9224159926
  H        31.9066242902       24.5506927761        2.6228858849
  H        35.5387198650       24.1635557813        4.8955321970
  H        34.5134891040       22.2961865231        6.1994101069
  H        33.6146966796       23.5689132153        1.2079884426
  H        40.5982015166       17.0887409147        4.6524166022
  H        32.5179835407       14.1424659847        8.2607288531
  H        29.9092273839       12.4760019892        3.9708543776
  H        28.8766169706       10.5861249049        2.7083172653
  H        25.1786646629       11.2107593366        4.8129715131
  H        26.2275964050       13.0966324684        6.0771303731
  H        27.1920241420       11.6697998905        1.2403675634
  H        33.2975149833       14.1888412347        6.4377132795
  H        33.4061055855       14.4099670103        9.6080129366
  H        32.1406216860       18.5171671055        5.1722058147
  H        30.2317981895       14.1867187094        8.0878737374
  H        16.1185554823        2.9630740980       12.1300413101
  H        14.9533127381        4.8200936182       13.3227753677
  H        17.3654008506        7.6857947429       11.2096137221
  H        18.5141754929        5.8182131062       10.0097647402
  H        16.7534365289        5.7394751918       14.7715211485
  H        44.8281664430       32.1400842795       11.9767858539
  H        45.9373891342       30.3411584499       13.3062196020
  H        43.6816545792       27.3780690352       11.1528291586
  H        42.5990494015       29.1898768211        9.8102106182
  H        44.2301679885       29.4365696408       14.7689015009
  H        14.8506101105        8.5458629178       11.3633107525
  H        44.9001204884       32.2339058298        3.9321478375
  H        46.0249546067       30.4128361674        2.6526003122
  H        43.7626516091       27.4839848781        4.8447588225
  H        42.6449214300       29.3175862621        6.1238078587
  H        44.2683608862       29.4703562348        1.2181728750
  H        35.0045767828       26.6327323650        4.6473699759
  H        36.6050627675       35.1339043819        8.1807039535
  H        16.1439232469        3.0127998662        3.9037486956
  H        14.9742909980        4.8560946855        2.6879881198
  H        17.3951383840        7.7472039010        4.7558590959
  H        18.5422257468        5.8932459806        5.9835769828
  H        16.7645664967        5.7554404185        1.2192816099
  H        36.2785869522       34.4821475847        6.2734260582
  H        36.3805360875       34.2091332941        9.4997805072
  H        40.5784776714       33.2010777772        5.1543124790
  H        17.4707432686        1.9465907560        7.9740912550
  H        28.9020786252       19.1841146059       12.3766232761
  H        28.7946842013       18.6632766056        3.8647611630
  H        30.5670416446       15.4283197177        3.9527319218
  H        31.2582166361       15.5976645516       12.5663804776
  H        28.1043097555       17.7081177558       14.7247474003
  H        29.6878654872       15.7524489054       14.9577430918
  H        32.1197002171       16.1229021169        1.7934754852
  H        31.7073815752       19.1847976239       17.1326613827
  H        18.8536354581        0.8690769703       12.3352352806
  H        40.5279331491       35.2291336447        3.9522591335
  H        42.3227912245       34.4178181821        3.5912560084
  H        22.0878932411        0.6921590532       12.3513790459
  H        11.5965314035       18.7129768495       12.3825169069
  H        52.2647570230       18.4310781387        3.6774098225
  H        49.2550741022       16.4771582938        3.5847105326
  H        10.1496149899       15.7983344263       12.2930713820
  H        50.8498727138       17.6923823671        3.9543045535
  H        10.0455409157       17.3946232628       12.0519965830
  H        20.2149365826        0.0022754665       12.0420223766
  H        39.1834037256       36.1242333831        3.6863632314
 Ni        30.7334772248       17.5960298590        3.0796178451
 Ni        31.2916653447       17.4213190362       -0.4108060350
 Ni        29.9240016984       19.0945029754       -0.5872531835
 Ni        29.9818059615       17.3920977798       13.1597725973
  O        10.6499146920       14.3651335105        5.4858089368
  O        12.6131635970       14.6575274734        6.5838980605
  O        49.1478414166       16.8460075307        7.9897870269
  O        50.3502271639       20.9359230138        5.6481899840
  O        48.3485468065       20.5932872024        6.6659886106
  O        11.0514112520       17.0539775825        6.5006430868
  O        50.3209539857       20.8816828234       10.4067987384
  O        48.3467257034       20.5867128922        9.3271006307
  O        49.5435194091       18.2484643719       10.0682577120
  O        12.3588495656       18.6245836510        7.9997478184
  O        48.6931828922       14.1486288335        6.7512760036
  O         8.2098433105       14.2104160507        9.3225514947
  O        10.7353432704       14.5067625764       10.6643450598
  O        12.5718077466       14.5828328638        9.3285089448
  O        22.8444336940        2.0427269021        5.4873136999
  O        21.6051895403        3.5920984167        6.5898880802
  O        42.0578293110       34.1369156063        7.9789774133
  O        37.9813491192       33.1370482766        5.5726356155
  O        39.2171605359       31.5751549294        6.6657548959
  O        20.3082498332        1.0392709264        6.5019610212
  O        38.0244969528       33.1852228799       10.4155192666
  O        39.2182803064       31.5829785825        9.3275395495
  O        40.6521373828       33.7690496827       10.0602392188
  O        18.2555999458        1.3756507570        7.9968096025
  O        44.6222219830       35.1004997686        6.7587300195
  O        24.2053846077       -0.0000393914        9.3208125518
  O        22.7530018430        2.0571744198       10.5835194387
  O        21.6244330659        3.5960129516        9.3425834129
  O        27.4962617839       18.7486421644        5.4912634629
  O        26.7609742630       16.9362857988        6.6542414307
  O        30.6713256001       19.4016885314        8.0615877249
  O        33.5851233431       16.2787469550        5.6672794491
  O        34.2752233399       18.1688341974        6.7366627263
  O        29.5734162510       17.0585741227        6.5840226409
  O        33.5531326784       16.3396908395       10.4196254668
  O        34.3016426549       18.2386411564        9.4098430736
  O        31.6499431548       18.3157739002       10.1572614216
  O        30.3235626178       15.1537078740        8.0893631559
  O        28.5493553535       21.0352926824        6.8407721602
  O        28.5133395583       20.9573482486        9.4051825840
  O        27.4544589085       18.6809614974       10.6547273007
  O        26.6940524217       16.9291681886        9.4119771878
  O        13.1486515806       18.6930025675       10.5875010358
  O        13.9193755709       16.9162160138        9.4050581656
  O        50.5957788725       19.3501854760        8.0205600960
  O        47.6829427680       16.3270002836       10.4171857207
  O        46.9505791097       18.1755759457        9.3253896397
  O        11.0695165160       17.0156755611        9.4897203880
  O        47.6757250243       16.3358708453        5.6528234322
  O        46.9263030335       18.2357840294        6.6638906804
  O        49.5684177213       18.3177267871        5.9823083181
  O        10.3185454652       15.1002509944        7.9971032724
  O        52.6707280701       21.0278875834        9.2418336413
  O        12.1468158291       20.8911791458        6.6732260769
  O        13.1079083592       18.6137235192        5.3256549314
  O        13.9570469033       16.9869370643        6.6655159662
  O        29.9942600850       14.4398745934       10.7276419260
  O        28.0894018610       14.6535904681        9.4946682404
  O        32.1374127875       16.8607553713        8.0887970012
  O        30.9639355396       20.9489375887       10.4109817552
  O        32.9457263568       20.6029106762        9.3400364463
  O        29.5661715044       17.0752037936        9.5715150715
  O        30.8560619351       20.8860732386        5.6582687500
  O        32.8726730825       20.5852426952        6.6654962443
  O        31.6832042259       18.2474320927        5.9883867356
  O        28.2897156361       18.6790582021        8.0729266975
  O        32.4916847044       14.2136968679        9.3329018802
  O        32.4077085291       14.2076251325        6.8277607135
  O        29.9098279212       14.4308671283        5.4934104305
  O        28.0355635938       14.5866943430        6.7552080028
  O        17.8891642696        1.9665105215       10.6628280627
  O        18.9561820149        3.5270744623        9.4079993438
  O        39.1686192040       34.1385703673        7.9971725768
  O        43.2801740559       33.0588702507       10.3316583516
  O        42.0343642935       31.5064574025        9.2415836714
  O        20.3174185304        1.0363805422        9.4803791906
  O        43.2760779848       33.1825135769        5.5749062133
  O        42.0052227359       31.5840943907        6.5830106434
  O        40.5788810515       33.7746862218        5.9357771295
  O        22.3670904878        1.3843574165        7.9979499069
  O        36.6727449156       35.0996700569        9.2333398836
  O        16.4455216244        0.0641653317        6.6682788172
  O        17.9364559432        2.0433383803        5.3263627222
  O        18.9189908480        3.5930955737        6.6659678673
  O        29.7335017917       18.8270165082        4.0858326575
  O        29.7336634096       18.8434297495       11.9887070168
  O        31.2239610731       16.1275288780        4.1484824821
  O        31.2176316473       16.4312789458       12.0613329467
  O        31.5959514745       16.9106597926        1.5649876376
  O        30.4620347008       16.1200232863       14.4951285582
  O        31.6362685753       19.2005099289       16.1565702995
  O        28.6797241222       18.3347250536       14.2507802224
  O        39.4567459827       35.2437109016        4.0019856667
  O        19.1416497518        0.0046522299       11.9905384496
  O        41.9696450400       35.1727600408        4.0871813353
  O        21.6914185832       -0.0693111301       11.8959260072
  O        51.3649521507       18.6142851411        4.0054563473
  O        10.7507704872       18.7472310318       11.9049251165
  O        50.0796633092       16.4128079760        4.0917416983
  O         9.5239075284       16.4831677456       11.9912151280
 Zr         9.2962995104       16.0528720726        6.1823750360
 Zr        49.8358576693       16.0068992383        9.7465421331
 Zr        22.0728804559        0.0289020373        6.1892326355
 Zr        42.4605809038       35.1526610123        9.8007252269
 Zr        29.6128047287       19.0855017058        6.2903780141
 Zr        29.5815018458       19.1840452531        9.8475688585
 Zr        11.0373999010       19.0521928250        9.8277057398
 Zr        11.0432804832       19.1549817217        6.2512780200
 Zr        31.3363578838       16.1081280744        9.8877267615
 Zr        31.4078085863       16.0061647962        6.3198361986
 Zr        18.6006776009       -0.0024319892        9.7636325359
 Zr        18.5062242897       -0.0085780299        6.2134855127
 Zr        12.3013546475       16.3236127547        7.9903493844
 Zr        48.6154332488       18.8329929579        8.0104178515
 Zr        20.3145324338        2.4723904078        7.9907055110
 Zr        40.6424085719       32.6859230542        7.9780984486
 Zr        28.3443106123       16.3414624038        8.0857451198
 Zr        32.6401929126       18.8423239778        8.0569585340
