     576
 i =      236, E =     -4780.0281569521
  C        11.8589046706       14.0533583973        5.7415329042
  C        12.4563978179       12.8905794706        5.0232364445
  C        11.7047022202       12.1716120090        4.0815797931
  C        12.2811676667       11.1094460114        3.3892808957
  C        13.6217554326       10.7396373479        3.6170378899
  C        14.3548645521       11.4432852301        4.5905064222
  C        13.7819527839       12.5082393060        5.2820129754
  C        14.2612842898        9.6490165156        2.8435933674
  C        14.2564709712        9.6569178582        1.4219020493
  C        13.7432973568       10.7590795570        0.6680565071
  C        49.1270557036       21.2332449257        5.8796336619
  C        48.5504002707       22.4012347877        5.1526067164
  C        49.3003124775       23.0682651057        4.1713214134
  C        48.7334010169       24.1074424337        3.4381547678
  C        47.4030550794       24.5095459635        3.6671579121
  C        46.6723449942       23.8610924390        4.6811378431
  C        47.2347489376       22.8161616238        5.4104681190
  C        46.7727043151       25.5871273712        2.8698389129
  C        46.7615865324       25.5574389807        1.4480780306
  C        47.2614901161       24.4423309625        0.7045802353
  C        14.8604843227        8.5706229254        0.7086476283
  C        14.8921757194        8.5971386121        3.5202626154
  C        49.1133709422       21.2035944508       10.1453933538
  C        48.5281038994       22.3650097446       10.8725003966
  C        49.2671974032       23.0254299750       11.8657185845
  C        48.6908232005       24.0599863018       12.5971498357
  C        47.3605436110       24.4571109460       12.3586791937
  C        46.6403966694       23.8125106451       11.3347533097
  C        47.2139170140       22.7766137231       10.6029489302
  C        46.7220475509       25.5320144798       13.1497408874
  C        46.7336632178       25.5281961630       14.5714465326
  C        47.2491940795       24.4290178996       15.3278186993
  C        40.6357022122       17.1505332030       15.3232041714
  C        40.6547798149       17.1812137214       12.5148351808
  C        11.8831143801       14.0864722435       10.2855740335
  C        12.4724779317       12.9108734309       10.9898368042
  C        11.7150340174       12.1775365098       11.9159331896
  C        12.2816664810       11.0951238221       12.5843460005
  C        13.6205498492       10.7215645426       12.3524766088
  C        14.3585429703       11.4371770344       11.3917129739
  C        13.7929607897       12.5182803218       10.7190651212
  C        14.2542425134        9.6248322673       13.1228177230
  C        14.2527006544        9.6446517177       14.5446523432
  C        13.7428147282       10.7535464047       15.2918034949
  C        22.5138880574        3.2448078412        5.7537243031
  C        23.2326177500        4.3489301551        5.0566895712
  C        24.2276189125        4.0668729150        4.1087753737
  C        24.8585107675        5.1049791787        3.4280076411
  C        24.5106307526        6.4479465397        3.6748809690
  C        23.5444619915        6.7214267650        4.6603170173
  C        22.9087402439        5.6851146572        5.3393757208
  C        25.1170342979        7.5541037218        2.8986470351
  C        25.0793940048        7.5509244202        1.4772447186
  C        24.3731094163        6.5533249117        0.7327703070
  C        38.2990399226       31.9282151299        5.8518022416
  C        37.5597363158       30.8388768254        5.1495843533
  C        36.5964942636       31.1445852743        4.1757666261
  C        35.9692260168       30.1256472457        3.4640024348
  C        36.2899398379       28.7749310104        3.7031833749
  C        37.2223954464       28.4766875855        4.7146987049
  C        37.8538141312       29.4945866342        5.4256451409
  C        35.6821799952       27.6858614653        2.9042264033
  C        35.7238972449       27.6997973783        1.4826682477
  C        36.4394796788       28.6988984576        0.7499276350
  C        25.6962203888        8.6235349867        0.7560163915
  C        25.7222638111        8.6252861999        3.5679162009
  C        38.3309739838       31.9612606186       10.1600920311
  C        37.6152223338       30.8878823027       10.9096169088
  C        36.6854232535       31.1969045771       11.9143845066
  C        36.0774021169       30.1793292715       12.6476427350
  C        36.3840352693       28.8261004325       12.4001691006
  C        37.2943610464       28.5270042989       11.3677926302
  C        37.9044755373       29.5411038982       10.6359225302
  C        35.7707058552       27.7271712067       13.1821843129
  C        35.7693554655       27.7208519817       14.6046355040
  C        36.4600103257       28.7097391421       15.3733214897
  C        46.1355999761       26.6207979281       15.2815918294
  C        46.0880299880       26.5803352025       12.4736690396
  C        22.4605219152        3.2566166564       10.2588756445
  C        23.1524222702        4.3656424058       10.9832528990
  C        24.1502440825        4.0806196719       11.9290910025
  C        24.7760015201        5.1114337654       12.6262249549
  C        24.4248048954        6.4576483137       12.4005084391
  C        23.4501395714        6.7356295652       11.4232039707
  C        22.8194095986        5.7051944612       10.7267424361
  C        25.0540158814        7.5570654114       13.1746849265
  C        25.0468658497        7.5521687163       14.5977487867
  C        24.3558508896        6.5548394019       15.3558740423
  C        26.6171442234       17.8577643097        5.7826119336
  C        25.3119891190       17.8999913940        5.0553024477
  C        25.0442807377       18.9009333018        4.1077431794
  C        23.8323203378       18.9153259500        3.4198661397
  C        22.8491307008       17.9342023076        3.6609751184
  C        23.1120827626       16.9561839988        4.6386270816
  C        24.3273340423       16.9345670960        5.3215439871
  C        21.5754950163       17.9181371375        2.8974089372
  C        21.5762578362       17.8958897584        1.4750918465
  C        22.7820465346       17.7704137259        0.7152927260
  C        34.4473448154       17.2019600191        5.9234138373
  C        35.7408275967       17.1502359287        5.1815419781
  C        35.9683374158       16.1564960698        4.2162010887
  C        37.1453967754       16.1529334816        3.4732264473
  C        38.1297886832       17.1379632372        3.6822933430
  C        37.9089742859       18.1091521254        4.6766378032
  C        36.7268512608       18.1209432221        5.4129969965
  C        39.3836345593       17.1495304424        2.8958940667
  C        39.3781235191       17.1618406091        1.4751017743
  C        38.1699760410       17.2793671769        0.7182026687
  C        20.3300239836       17.9144937136        0.7662006830
  C        20.3508969883       17.9224841413        3.5797534367
  C        34.4784635157       17.2473136916       10.1792543273
  C        35.7808004894       17.1790030867       10.9048954328
  C        35.9973650086       16.1930231548       11.8787863535
  C        37.1825938136       16.1778147204       12.6084385264
  C        38.1777818029       17.1482560244       12.3830717216
  C        37.9670144752       18.1104963370       11.3784746348
  C        36.7797555274       18.1303506024       10.6514675954
  C        39.4238522265       17.1677705571       13.1791074386
  C        39.3990608192       17.1744733004       14.5998026255
  C        38.1801344995       17.2851380699       15.3412261494
  C        35.1294233396       26.6441508961       15.3045529372
  C        35.1828917494       26.6571623459       12.4952425339
  C        26.5712630583       17.8271567831       10.3246165079
  C        25.2559783519       17.8708007393       11.0301846503
  C        24.9950056333       18.8690698426       11.9808160151
  C        23.7771619835       18.8922483540       12.6546855344
  C        22.7921339382       17.9165666170       12.4020872700
  C        23.0480043614       16.9429136307       11.4197073718
  C        24.2663565244       16.9179243097       10.7437925687
  C        21.5287083946       17.8949086932       13.1750866419
  C        21.5521021600       17.8810131883       14.5966191615
  C        22.7702231092       17.7624240493       15.3388173073
  C        14.0467839232       17.8285032821       10.2889563584
  C        15.3510783999       17.8841425942       11.0140119838
  C        15.6079857181       18.8844332599       11.9646336093
  C        16.8171027888       18.9028137553       12.6573305370
  C        17.8035169466       17.9238349747       12.4214548512
  C        17.5515292950       16.9481857876       11.4384473039
  C        16.3418104014       16.9249857020       10.7475901300
  C        19.0724376410       17.9038136493       13.1904256833
  C        19.0707130698       17.8966841074       14.6128089238
  C        17.8635554423       17.7964672095       15.3736669792
  C        46.8069059791       17.2206078733       10.1596977108
  C        45.5189799541       17.1655664105       10.9086179912
  C        45.3119999949       16.1929024308       11.8986302786
  C        44.1319651198       16.1833791763       12.6373739432
  C        43.1305028822       17.1464681341       12.4066709673
  C        43.3349629507       18.0990339079       11.3905470165
  C        44.5156791136       18.1126632747       10.6532225269
  C        41.8779842947       17.1642985498       13.1946325646
  C        41.8829699709       17.1644044699       14.6160161879
  C        43.0916754744       17.2586252546       15.3751464615
  C        20.3173108287       17.9058089192       15.3212481874
  C        20.2966905276       17.8863029770       12.5083647668
  C        46.7872347621       17.2315616826        5.8905404491
  C        45.4835831383       17.1291337120        5.1767028099
  C        45.2628367681       16.1346681216        4.2122859524
  C        44.0749084802       16.1149263460        3.4860954934
  C        43.0803548726       17.0867365424        3.7085913739
  C        43.2907469212       18.0500135156        4.7123915581
  C        44.4798130284       18.0762474450        5.4332461325
  C        41.8356441517       17.1170859021        2.9114658191
  C        41.8615467260       17.1374635277        1.4910858941
  C        43.0817092992       17.2430819665        0.7516623782
  C        46.1533339704       26.6372068932        0.7263570101
  C        46.1628236591       26.6562897538        3.5359927716
  C        14.0453663348       17.8307608928        5.7082312005
  C        15.3658885406       17.9022432459        5.0169635219
  C        15.6401958265       18.9145325956        4.0852525722
  C        16.8691329083       18.9485184113        3.4301708556
  C        17.8513841305       17.9692330467        3.6810105262
  C        17.5839746753       16.9859864700        4.6508579300
  C        16.3570628735       16.9514465832        5.3093217378
  C        19.1185952624       17.9409072139        2.9123590830
  C        19.0948669838       17.9151959598        1.4908989284
  C        17.8752992649       17.8049585876        0.7499022905
  C        28.8095651552       14.0920388305       10.3933571440
  C        28.1941157283       12.9202520286       11.0812198310
  C        28.9057389374       12.1976738471       12.0503235897
  C        28.3043367898       11.1233623764       12.7009051531
  C        26.9765681736       10.7495356208       12.4091433110
  C        26.2874476311       11.4537100734       11.4053846642
  C        26.8870039617       12.5270733131       10.7516510930
  C        26.3040284995        9.6719726045       13.1700529956
  C        26.2875888093        9.7012539598       14.5912775577
  C        26.7825646970       10.8183150187       15.3364439282
  C        32.1801011171       21.2432244280       10.1441843161
  C        32.7765764021       22.4093743073       10.8639234879
  C        32.0258378827       23.0903760477       11.8345839400
  C        32.5958003443       24.1291714532       12.5645900700
  C        33.9326881126       24.5147569989       12.3461028865
  C        34.6662825668       23.8520322354       11.3440086897
  C        34.0982894529       22.8081530672       10.6153846224
  C        34.5601044743       25.5888197580       13.1503448654
  C        34.5406678814       25.5615220353       14.5722147137
  C        34.0216342431       24.4490811562       15.3076221512
  C        25.6833452439        8.6210652118       15.3110763769
  C        25.6700928038        8.6185223413       12.4977759164
  C        32.0802012785       21.2051496408        5.8828320658
  C        32.6499221696       22.3708702424        5.1418621892
  C        31.9110690549       23.0310039216        4.1476504111
  C        32.4857705092       24.0661658660        3.4116315224
  C        33.8130099170       24.4740229350        3.6533885463
  C        34.5319625429       23.8302568767        4.6787845514
  C        33.9629770528       22.7898740543        5.4080581379
  C        34.4555406162       25.5573916500        2.8720579259
  C        34.4845374151       25.5465956823        1.4500815349
  C        33.9929261016       24.4427022199        0.6843312220
  C        40.6247594223       17.1402671972        0.7670780256
  C        40.6053599055       17.1441641269        3.5768994188
  C        28.7490935967       14.0751342411        5.8165856510
  C        28.1455449881       12.9253149430        5.0795909881
  C        28.8707193499       12.2542641490        4.0832415501
  C        28.2921389934       11.1947380006        3.3879225183
  C        26.9722621390       10.7815472323        3.6613297701
  C        26.2657329788       11.4412800735        4.6847295092
  C        26.8425585577       12.4998051407        5.3830690591
  C        26.3274519503        9.6919033471        2.8897456576
  C        26.3020274218        9.7109492164        1.4678199188
  C        26.7877329264       10.8241797056        0.7124097915
  C        18.1356031750        3.1810218502       10.3171751404
  C        17.4065218628        4.2783580160       11.0159247951
  C        16.3902925466        4.0001310497       11.9429098610
  C        15.7426226100        5.0401920605       12.6063394887
  C        16.0951965515        6.3838191685       12.3671442766
  C        17.0852570544        6.6532535340       11.4040723704
  C        17.7342903635        5.6158102230       10.7390946235
  C        15.4708118780        7.4915218365       13.1301814940
  C        15.4858368893        7.4907525657       14.5518952213
  C        16.1873981230        6.4971097435       15.3050208266
  C        42.9458396439       31.8596627165       10.0728459123
  C        43.6461834511       30.7718984368       10.8169346516
  C        44.5916444911       31.0932601653       11.8030324090
  C        45.1973834501       30.0877210415       12.5507119779
  C        44.8710157455       28.7346599649       12.3358398829
  C        43.9452955620       28.4202933658       11.3225470935
  C        43.3364418060       29.4254189092       10.5744982426
  C        45.4887087583       27.6553681523       13.1389773907
  C        45.4927210763       27.6808343137       14.5606800865
  C        44.8056396098       28.6888746147       15.3073182015
  C        14.8567688034        8.5632015896       15.2642250859
  C        14.8755820824        8.5633151327       12.4515952486
  C        42.9464312989       31.9617627685        5.8090369062
  C        43.6917449616       30.8855532598        5.0954969072
  C        44.6564061675       31.1914785956        4.1232961941
  C        45.2779939845       30.1719021550        3.4055701780
  C        44.9541988809       28.8215994070        3.6431690505
  C        44.0206878124       28.5239037224        4.6539011289
  C        43.3923779858       29.5406685206        5.3660605161
  C        45.5632428254       27.7241374965        2.8579687719
  C        45.5334139946       27.7173839071        1.4366670762
  C        44.8269402436       28.7075071200        0.6837124916
  C        35.1034394402       26.6352512479        0.7498575772
  C        35.0660503549       26.6138858898        3.5601215339
  C        18.1487780299        3.2470113460        5.7065925161
  C        17.4302695097        4.3438736053        4.9972352285
  C        16.4146580535        4.0526831649        4.0740856798
  C        15.7663868184        5.0833388307        3.3986954060
  C        16.1215776626        6.4284850219        3.6210736018
  C        17.1135143157        6.7118596272        4.5777325547
  C        17.7611370117        5.6828795814        5.2574607651
  C        15.4909827699        7.5241915228        2.8486945841
  C        15.4967667224        7.5075820325        1.4275625907
  C        16.1935371974        6.5059079105        0.6808334979
  H        10.6725741915       12.4656946345        3.9045140423
  H        11.6949573485       10.5509275433        2.6627071900
  H        15.3919331569       11.1687945075        4.7722013800
  H        14.3514915434       13.0714986481        6.0173577180
  H        13.3763440018       11.6312329689        1.2013564113
  H        50.3228794255       22.7479418713        3.9862862255
  H        49.3198237066       24.6224795414        2.6803723690
  H        45.6430953558       24.1624033983        4.8647863237
  H        46.6639435900       22.2913426881        6.1730047137
  H        47.6301949212       23.5759995196        1.2462170424
  H        14.8727408362        8.5884178115        4.6085744837
  H        50.2871477675       22.7023939710       12.0608406097
  H        49.2691500631       24.5752508688       13.3608349753
  H        45.6111678722       24.1101464651       11.1453540239
  H        46.6532666219       22.2548049164        9.8310295258
  H        47.6080758710       23.5519486865       14.7969119200
  H        40.6609705039       17.1488518870       11.4270510678
  H        48.6872638257       14.0949266905        7.8000800179
  H        10.6815238749       12.4664437502       12.0933446659
  H        11.6899821252       10.5245753010       13.2970093029
  H        15.3940401474       11.1594839525       11.2058290256
  H        14.3653686090       13.0877674302        9.9906897522
  H        13.3760786996       11.6222231943       14.7532082148
  H        47.9303041966       14.2182241648        9.7110702452
  H        47.7801361149       14.3739088742        6.4954760228
  H        49.0848996661       18.5530235953       10.8677342093
  H        10.4165917896       14.1342274927        7.9988026793
  H        24.4840539326        3.0276266371        3.9154806336
  H        25.6295295896        4.8854953484        2.6926187962
  H        23.2686285374        7.7552390459        4.8577173607
  H        22.1404766241        5.8877456202        6.0815961390
  H        23.8144216459        5.7956466514        1.2744133601
  H        36.3644852818       32.1884745469        3.9782459837
  H        35.2233355097       30.3673310870        2.7099584022
  H        37.4779509753       27.4367996715        4.9076417810
  H        38.5995804755       29.2710924267        6.1849174823
  H        37.0029222211       29.4470150775        1.2998661840
  H        25.7673866324        8.6032311633        4.6552843516
  H        36.4586999209       32.2411255552       12.1175492228
  H        35.3499681576       30.4259161568       13.4179056357
  H        37.5447167180       27.4868619831       11.1697990535
  H        38.6282850380       29.3138803644        9.8570087565
  H        37.0400518107       29.4660100687       14.8521345750
  H        46.1096280782       26.5879258637       11.3856389394
  H        44.6684011464       35.1163107170        7.8139361238
  H        24.4266513266        3.0425437858       12.0993833300
  H        25.5535652110        4.8827466854       13.3519340882
  H        23.1671783645        7.7700861687       11.2392160834
  H        22.0512747160        5.9180140227        9.9868291331
  H        23.7833632185        5.7988791066       14.8262287322
  H        44.9541899484       34.3908325737        9.6955098212
  H        44.9019335258       34.2068334048        6.4907466444
  H        40.6665156999       33.2096588023       10.8534477619
  H        23.1503477436        1.9583715538        8.0056920751
  H        25.7944733448       19.6678963432        3.9286795113
  H        23.6303757394       19.6971077316        2.6906786530
  H        22.3649192359       16.1894605164        4.8333700558
  H        24.5415828498       16.1652000129        6.0597455471
  H        23.7221254211       17.6486643204        1.2455220785
  H        35.2105102650       15.3913274884        4.0641174516
  H        37.3231883442       15.3769258320        2.7317169871
  H        38.6636851694       18.8752023075        4.8424166628
  H        36.5372592710       18.8849544248        6.1635043072
  H        37.2309652274       17.3988216168        1.2513884129
  H        20.3575595890       17.9636363913        4.6675778708
  H        35.2171283235       15.4569693345       12.0586449026
  H        37.3526640094       15.4096527611       13.3597043209
  H        38.7300909082       18.8657041731       11.2017300692
  H        36.5930430967       18.8897657812        9.8958134155
  H        37.2487917263       17.4070755778       14.7955791504
  H        35.1630037961       26.6828717680       11.4073673218
  H        28.5102026330       21.0793177527        7.9740295921
  H        25.7601140608       19.6173429193       12.1750946624
  H        23.5740939309       19.6706030877       13.3870638799
  H        22.2959836915       16.1824264816       11.2195230809
  H        24.4807323628       16.1541471215       10.0000858619
  H        23.7012750403       17.6351941317       14.7945221379
  H        28.9985922352       21.7223148232        9.7642459655
  H        29.1534785511       21.7444370171        6.6198994839
  H        32.0935707923       18.5532389488       10.9846812877
  H        27.4038281111       19.0705960943        8.0779549914
  H        14.8497197309       19.6430524041       12.1453655549
  H        17.0125944138       19.6845605180       13.3882054206
  H        18.3028118070       16.1846744288       11.2471840365
  H        16.1356677747       16.1581913616       10.0046417182
  H        16.9212493915       17.6807349689       14.8460605452
  H        46.0926856104       15.4583861059       12.0820068725
  H        43.9705516796       15.4215565739       13.3968605805
  H        42.5692240356       18.8504305816       11.2093409181
  H        44.6915518386       18.8621248931        9.8851774110
  H        44.0332678386       17.3746783946       14.8460358439
  H        20.2910192877       17.9201908641       11.4203565834
  H        46.0377813527       15.3928597468        4.0331037018
  H        43.9049806551       15.3444481644        2.7371942394
  H        42.5266662524       18.8039552569        4.8897813758
  H        44.6661646416       18.8389660162        6.1852119971
  H        44.0155602970       17.3461364054        1.2966292384
  H        46.1998319829       26.6830107149        4.6234291156
  H        52.7413736961       21.0626811890        8.1947375404
  H        14.8805768097       19.6685945145        3.8912390224
  H        17.0810471374       19.7364630691        2.7106316059
  H        18.3337265154       16.2235974235        4.8522075831
  H        16.1352554555       16.1793366546        6.0419800059
  H        16.9418161876       17.6956642813        1.2937112532
  H        52.3229262534       21.6734571696        6.2941067148
  H        52.0135785507       21.7023443883        9.4957589083
  H        49.0684351903       18.6082037153        5.2039698790
  H        13.2479049407       19.0158784617        7.9773002532
  H        29.9260726359       12.4950743562       12.2820316384
  H        28.8582404619       10.5616662398       13.4499192574
  H        25.2614739828       11.1759006279       11.1727638401
  H        26.3521125452       13.0920733305        9.9922512721
  H        27.1339680266       11.6919849069       14.7959840743
  H        30.9993055060       22.7785454690       12.0120773570
  H        32.0078042690       24.6565733169       13.3125710912
  H        35.7010907536       24.1397035106       11.1695449813
  H        34.6704671829       22.2708735482        9.8624622216
  H        33.6687916354       23.5803891575       14.7591152756
  H        25.7032323450        8.5964562025       11.4099024144
  H        30.8860699228       22.7161147973        3.9628697463
  H        31.9057102643       24.5782948715        2.6468604097
  H        35.5584020355       24.1341689814        4.8735907926
  H        34.5253507430       22.2713935458        6.1809756134
  H        33.6192497064       23.5680365856        1.2092615008
  H        40.5977887400       17.1059931751        4.6645305765
  H        32.5146656300       14.1469988393        8.2615697239
  H        29.8868387260       12.5790594456        3.8703035284
  H        28.8627655667       10.6705716733        2.6243669975
  H        25.2445039454       11.1359867431        4.9033542906
  H        26.2928852165       13.0243948842        6.1609241726
  H        27.1418077849       11.7026186135        1.2439754647
  H        33.2997622309       14.2065487053        6.4476454262
  H        33.4094824597       14.4072976466        9.6068440093
  H        32.1252209501       18.5813274103        5.1961320744
  H        30.2169221163       14.1873241366        8.0758343217
  H        16.1177448196        2.9636802845       12.1288824975
  H        14.9527755076        4.8209575017       13.3216046143
  H        17.3684088443        7.6860412353       11.2115382150
  H        18.5169049590        5.8183705253       10.0118373674
  H        16.7540738949        5.7398826781       14.7714815518
  H        44.8278557485       32.1403646487       11.9772074039
  H        45.9372112538       30.3415522696       13.3066702970
  H        43.6826914482       27.3782093876       11.1523927168
  H        42.5999198166       29.1901292386        9.8097248747
  H        44.2303124194       29.4366652383       14.7690156532
  H        14.8521415738        8.5466984284       11.3633638095
  H        44.8999392414       32.2341738582        3.9318762896
  H        46.0249469733       30.4131743497        2.6523887982
  H        43.7637650840       27.4841684565        4.8454789718
  H        42.6458378919       29.3179382739        6.1244862602
  H        44.2685566274       29.4704476556        1.2183547011
  H        35.0166166879       26.6267078635        4.6473353437
  H        36.6053843171       35.1340197135        8.1807402301
  H        16.1432275365        3.0131420774        3.9047113761
  H        14.9737624279        4.8565997508        2.6889115108
  H        17.3976116012        7.7472543487        4.7541106808
  H        18.5445486374        5.8932857730        5.9816616102
  H        16.7650609190        5.7557413916        1.2192808941
  H        36.2791610495       34.4820562498        6.2731939439
  H        36.3815555619       34.2088122032        9.4994549214
  H        40.5794430300       33.2022584160        5.1537762166
  H        17.4711687692        1.9473998163        7.9741397218
  H        29.0560096561       19.3374603695       12.4899791937
  H        28.8116866490       18.9241926436        3.8045393120
  H        32.4283892693       16.5432138572        3.9810598579
  H        31.2930609360       15.5599748377       12.4831586393
  H        28.0478833467       17.9439677321       14.8029990621
  H        29.4363583963       15.2011646130       14.5883211272
  H        30.6984097004       20.5231233060        1.6078032292
  H        33.3404229438       15.8479850609        0.8792744776
  H        28.4566802668       17.8792912172        1.5770187147
  H        32.1884532232       18.3895646116       14.6466035739
  H        18.8542133444        0.8692478003       12.3353014619
  H        40.5280652986       35.2288263591        3.9520089079
  H        42.3244351282       34.4193276997        3.5901294715
  H        22.0876029338        0.6924405693       12.3512339848
  H        11.5968473525       18.7127889657       12.3827572597
  H        52.2649085763       18.4313413223        3.6769804926
  H        49.2551331875       16.4768960835        3.5845214620
  H        10.1497143055       15.7981890148       12.2928430847
  H        50.8502371239       17.6924494156        3.9541895741
  H        10.0459464407       17.3944666561       12.0519462589
  H        20.2157617202        0.0024991610       12.0418102396
  H        39.1838010163       36.1244196424        3.6864734247
 Ni        30.3902263460       17.3557568790        2.8355975554
 Ni        31.3293461016       16.1217732516       -0.3332315640
 Ni        29.8863795563       19.0644867473       -0.2480094304
 Ni        30.1403131207       17.4078059746       13.2393254369
  O        10.6499892563       14.3650813316        5.4858746579
  O        12.6131810096       14.6575347816        6.5838603760
  O        49.1481804846       16.8458319841        7.9897708346
  O        50.3503917268       20.9356157319        5.6480411009
  O        48.3485974837       20.5933785197        6.6658411565
  O        11.0519661672       17.0537767470        6.5007698052
  O        50.3211073175       20.8817040293       10.4068739990
  O        48.3467986705       20.5867913512        9.3272331740
  O        49.5438641483       18.2484915110       10.0682459971
  O        12.3591856408       18.6246529985        7.9997649058
  O        48.6932731110       14.1485572290        6.7513522429
  O         8.2098854463       14.2104037693        9.3225244661
  O        10.7353681304       14.5067883181       10.6642909925
  O        12.5717590642       14.5829017535        9.3285007727
  O        22.8446405717        2.0430187362        5.4872579964
  O        21.6060893063        3.5924758076        6.5892083940
  O        42.0581699039       34.1374814430        7.9789128383
  O        37.9812633738       33.1365126459        5.5723764950
  O        39.2175752999       31.5752705837        6.6661753831
  O        20.3084646239        1.0396417112        6.5021030982
  O        38.0245061857       33.1851223279       10.4157089205
  O        39.2186659751       31.5832110186        9.3271714033
  O        40.6522804489       33.7693398016       10.0601439981
  O        18.2557348676        1.3760696562        7.9967999965
  O        44.6221922572       35.1005216719        6.7587735413
  O        24.2054083561        0.0000621120        9.3207616151
  O        22.7529657070        2.0581293229       10.5840645991
  O        21.6246190616        3.5961684799        9.3429047954
  O        27.4942280962       18.7526079921        5.4936545072
  O        26.7629190645       16.9364329028        6.6537089752
  O        30.6674850795       19.4029889050        8.0663535609
  O        33.5882830554       16.2818231669        5.6583052720
  O        34.2771582440       18.1681845343        6.7355130089
  O        29.5770951701       17.0556626061        6.5785028613
  O        33.6242081425       16.3290575848       10.4084691728
  O        34.3057209275       18.2486235393        9.4044029046
  O        31.6565235873       18.3132265658       10.1511770494
  O        30.3221974868       15.1528853054        8.0854681717
  O        28.5528375251       21.0320008855        6.9019390545
  O        28.5132936432       20.9572182470        9.4114750537
  O        27.4570237579       18.6782011509       10.6594988273
  O        26.6942491209       16.9288155840        9.4123092096
  O        13.1489176077       18.6928111521       10.5874869963
  O        13.9192632156       16.9161470122        9.4048703726
  O        50.5966925248       19.3503948346        8.0205709036
  O        47.6831932490       16.3270948097       10.4173952800
  O        46.9524262109       18.1761990604        9.3240650017
  O        11.0699111674       17.0154892409        9.4896540966
  O        47.6763173768       16.3353820877        5.6531814341
  O        46.9290154620       18.2359080040        6.6656670525
  O        49.5690087002       18.3177253766        5.9823651875
  O        10.3187661501       15.1000378341        7.9971522729
  O        52.6707898992       21.0279108425        9.2418157702
  O        12.1468961823       20.8912180458        6.6732256295
  O        13.1083299952       18.6135231811        5.3255949586
  O        13.9569224423       16.9869048512        6.6656280506
  O        29.9928290166       14.4425853290       10.7309108047
  O        28.0893891320       14.6537990750        9.4946284518
  O        32.1362800037       16.8523716746        8.0729590793
  O        30.9673905289       20.9557127950       10.4075687233
  O        32.9482280217       20.6027440313        9.3391740037
  O        29.5686200222       17.0741452421        9.5765630333
  O        30.8559723186       20.8900386345        5.6580685926
  O        32.8733219555       20.5843971815        6.6649189495
  O        31.6795563364       18.2509207108        5.9914851333
  O        28.2902193895       18.6743480985        8.0739942575
  O        32.4941444167       14.2127774660        9.3322548979
  O        32.4046573920       14.2142411980        6.8250924877
  O        29.9216801729       14.4531963228        5.4851700463
  O        28.0411544418       14.5903037915        6.7520847635
  O        17.8892555276        1.9666334786       10.6628121805
  O        18.9562565460        3.5271607800        9.4079443063
  O        39.1685395675       34.1387067048        7.9971437044
  O        43.2802073719       33.0589595819       10.3317281844
  O        42.0344628183       31.5063783508        9.2416635722
  O        20.3177464702        1.0368933408        9.4799552122
  O        43.2761207266       33.1825791149        5.5748405920
  O        42.0052594894       31.5841083304        6.5829939926
  O        40.5789418799       33.7750076149        5.9358406175
  O        22.3674550880        1.3847981872        7.9978783383
  O        36.6728660906       35.0997083823        9.2333759202
  O        16.4456431578        0.0642107567        6.6682465392
  O        17.9365295612        2.0433689163        5.3263973894
  O        18.9191365304        3.5930853336        6.6659489519
  O        29.7417914205       18.8288166789        4.0814442847
  O        29.8185170664       18.9727181014       11.9988809963
  O        31.4903355558       16.2714936733        3.9981240919
  O        31.3833466087       16.4049974226       11.9958741272
  O        32.6282867058       16.4858284590        1.0840896074
  O        29.3551796994       17.5902880732        1.3335706939
  O        30.2405495882       15.6275419217       14.2486173374
  O        31.3412903552       17.9523829155       14.8310493324
  O        31.1762737309       19.8541935705        1.0822855764
  O        28.7636315563       18.4599953692       14.3947802612
  O        39.4567567240       35.2437183257        4.0020233949
  O        19.1420816291        0.0048040275       11.9904758659
  O        41.9694698240       35.1726788905        4.0871192914
  O        21.6913131972       -0.0693014527       11.8959486497
  O        51.3651278061       18.6143030039        4.0053579924
  O        10.7511710888       18.7470910838       11.9049773176
  O        50.0795666290       16.4127815590        4.0917365567
  O         9.5239811978       16.4831374852       11.9911814755
 Zr         9.2981022366       16.0525645541        6.1825839277
 Zr        49.8371667323       16.0065452925        9.7462821172
 Zr        22.0735760220        0.0306841492        6.1887266664
 Zr        42.4611385905       35.1543132293        9.8009235234
 Zr        29.6012897304       19.0881480312        6.2847355311
 Zr        29.5800002109       19.1764240649        9.8776143491
 Zr        11.0388918439       19.0518611753        9.8279505982
 Zr        11.0447911676       19.1547322105        6.2508476769
 Zr        31.3534557467       16.1013103679        9.8863974527
 Zr        31.3789005035       16.0006409707        6.2887923708
 Zr        18.6015523196       -0.0009558792        9.7634601231
 Zr        18.5068441690       -0.0073261050        6.2137785445
 Zr        12.3029626005       16.3233747529        7.9904474421
 Zr        48.6181564568       18.8335622638        8.0103982126
 Zr        20.3160793093        2.4744606605        7.9904478083
 Zr        40.6435305767       32.6876471952        7.9781523547
 Zr        28.3464798607       16.3388681153        8.0909604988
 Zr        32.6193423992       18.8360011327        8.0674049557
  H        32.2103095356       16.1366211415        1.9116396037
  H        31.2459277061       19.0863097188        1.7203193691
  H        28.8215220760       19.9152178794        0.2377940186
  H        31.1932478215       14.7893503464        0.2096770284
