     576
 i =      212, E =     -4780.0090147401
  C        11.8586809554       14.0534346007        5.7415483503
  C        12.4561013543       12.8904482725        5.0232935167
  C        11.7044229137       12.1716339310        4.0815303560
  C        12.2807603961       11.1093953232        3.3892035425
  C        13.6212803181       10.7394365952        3.6170380080
  C        14.3544117121       11.4428776993        4.5906367264
  C        13.7815601512       12.5078758492        5.2821423821
  C        14.2607685966        9.6487643967        2.8436159775
  C        14.2560084603        9.6566598249        1.4219115208
  C        13.7428751819       10.7587932202        0.6679971773
  C        49.1266345104       21.2333568830        5.8798209842
  C        48.5497941458       22.4012212551        5.1526912009
  C        49.2997481101       23.0683883373        4.1715379069
  C        48.7327927526       24.1074817953        3.4383043038
  C        47.4023270109       24.5092639585        3.6670818322
  C        46.6714749238       23.8605690577        4.6807864918
  C        47.2339404993       22.8157018681        5.4101762399
  C        46.7720780056       25.5869229633        2.8697866732
  C        46.7610243582       25.5572678540        1.4480264083
  C        47.2609374714       24.4421640688        0.7045302829
  C        14.8599264041        8.5703138959        0.7086370400
  C        14.8915901030        8.5968258451        3.5202475420
  C        49.1130290389       21.2034849896       10.1454275674
  C        48.5276245156       22.3648373504       10.8725394897
  C        49.2668762833       23.0256412672       11.8653760155
  C        48.6905057140       24.0601667222       12.5968426291
  C        47.3600431287       24.4568149301       12.3586767253
  C        46.6396103236       23.8118114887       11.3352304725
  C        47.2131935465       22.7759253828       10.6034467527
  C        46.7215601284       25.5317614915       13.1496953588
  C        46.7332337441       25.5280802138       14.5713929482
  C        47.2487021080       24.4288791417       15.3277682056
  C        40.6187803286       17.1026661325       15.3067845685
  C        40.6245679275       17.1079591709       12.4974984106
  C        11.8828516862       14.0864121022       10.2854999490
  C        12.4720327189       12.9105095646       10.9896436888
  C        11.7145463486       12.1774640903       11.9159097890
  C        12.2810854272       11.0949879947       12.5843300360
  C        13.6198370458       10.7210634016       12.3523686243
  C        14.3577376411       11.4363983419       11.3913273235
  C        13.7923500498       12.5175792161       10.7186228346
  C        14.2534354361        9.6243314672       13.1228091600
  C        14.2521275145        9.6442925763       14.5446536047
  C        13.7423021191       10.7532522530       15.2917417241
  C        22.5132384427        3.2437473581        5.7539947641
  C        23.2319819339        4.3467892385        5.0561524393
  C        24.2283804097        4.0625521682        4.1105299979
  C        24.8596274558        5.0993110538        3.4284620737
  C        24.5101180134        6.4422904810        3.6720703135
  C        23.5423814362        6.7180144993        4.6551985605
  C        22.9063920692        5.6830568057        5.3357411679
  C        25.1178109464        7.5465118093        2.8951732494
  C        25.0844894738        7.5406497638        1.4739027778
  C        24.3786162532        6.5425677633        0.7297844043
  C        38.2984177624       31.9275367563        5.8516680960
  C        37.5577925296       30.8382179308        5.1497646675
  C        36.5927218905       31.1444471881        4.1777744926
  C        35.9634061055       30.1261380125        3.4666384336
  C        36.2836231012       28.7748994797        3.7040004111
  C        37.2180423344       28.4761004799        4.7136924664
  C        37.8513425859       29.4934143900        5.4242316450
  C        35.6741703976       27.6862116341        2.9048202860
  C        35.7152453889       27.7003444902        1.4829985974
  C        36.4289336155       28.7005416778        0.7498575383
  C        25.7046901205        8.6112820210        0.7527685298
  C        25.7198452629        8.6191397148        3.5644028764
  C        38.3303819267       31.9603401925       10.1603784584
  C        37.6142580389       30.8862966076       10.9096334666
  C        36.6813859471       31.1943791953       11.9119796028
  C        36.0726289851       30.1764498046       12.6444558883
  C        36.3814066542       28.8231590375       12.3992811479
  C        37.2949655365       28.5249438699       11.3693868867
  C        37.9055927146       29.5394224971       10.6381105043
  C        35.7678400219       27.7237603970       13.1814025560
  C        35.7633290949       27.7194548315       14.6040999553
  C        36.4503479518       28.7106103570       15.3731867414
  C        46.1352352134       26.6207183587       15.2815299531
  C        46.0875783757       26.5800930220       12.4736357654
  C        22.4600391162        3.2550456552       10.2575621154
  C        23.1527653883        4.3627111350       10.9815206921
  C        24.1537281184        4.0751997468       11.9230154303
  C        24.7808551103        5.1044711441       12.6204994788
  C        24.4269026873        6.4503184689       12.3986404638
  C        23.4489799908        6.7310609720       11.4257010407
  C        22.8170903537        5.7020647808       10.7287274867
  C        25.0580274078        7.5475335228       13.1725561856
  C        25.0540810799        7.5405800503       14.5952216265
  C        24.3623754610        6.5435013515       15.3529724889
  C        26.5712795762       17.8280111256        5.7808668860
  C        25.2717933149       17.8876382122        5.0495295908
  C        25.0182321383       18.8951119405        4.1058934497
  C        23.8083114007       18.9232349005        3.4159292842
  C        22.8186824266       17.9477358912        3.6507742627
  C        23.0681022452       16.9631078400        4.6246131385
  C        24.2794990305       16.9295722884        5.3115236158
  C        21.5503805655       17.9391959836        2.8831056851
  C        21.5573552660       17.9230942424        1.4616469124
  C        22.7664622664       17.8001071522        0.7070291585
  C        34.4486573005       17.1991628553        5.9237678669
  C        35.7415537154       17.1511578904        5.1809784499
  C        35.9666710371       16.1585891370        4.2136337924
  C        37.1433181228       16.1518496163        3.4704095431
  C        38.1313261474       17.1335621610        3.6785583037
  C        37.9128927517       18.1044823329        4.6744675860
  C        36.7311544597       18.1189763431        5.4121386993
  C        39.3829575189       17.1418704225        2.8871522339
  C        39.3711482274       17.1373750410        1.4655317602
  C        38.1595928835       17.2440469856        0.7126907588
  C        20.3137678440       17.9435818764        0.7496171793
  C        20.3250848969       17.9374621276        3.5624499472
  C        34.4345464336       17.2369557071       10.1878321457
  C        35.7336619474       17.1421720760       10.9149912298
  C        35.9355781132       16.1673882244       11.9031613206
  C        37.1271958575       16.1357471803       12.6236330344
  C        38.1442376908       17.0788050865       12.3771985647
  C        37.9468977363       18.0281249053       11.3569537912
  C        36.7554148229       18.0639946824       10.6389181303
  C        39.3953602540       17.0954352043       13.1674977467
  C        39.3780373006       17.1163124443       14.5889724476
  C        38.1631398066       17.2343011334       15.3357611674
  C        35.1245517224       26.6422611316       15.3044734640
  C        35.1835374775       26.6511457942       12.4949585436
  C        26.5709980189       17.8279760018       10.3279639997
  C        25.2569841661       17.8761072659       11.0329471039
  C        24.9974509003       18.8804987767       11.9772689879
  C        23.7779777986       18.9113311152       12.6473217590
  C        22.7910364267       17.9375483703       12.3961558378
  C        23.0457688416       16.9574789074       11.4201080696
  C        24.2657000665       16.9247049544       10.7481001257
  C        21.5256418096       17.9230259667       13.1644026274
  C        21.5441078754       17.9122021457       14.5854730799
  C        22.7599535482       17.7939080464       15.3309274527
  C        14.0457263271       17.8317921093       10.2844899041
  C        15.3521049057       17.8959318074       11.0022028539
  C        15.6106620851       18.9081991169       11.9392026510
  C        16.8212249846       18.9343103322       12.6280802086
  C        17.8047117263       17.9509045595       12.4007966832
  C        17.5520132450       16.9641934456       11.4296488814
  C        16.3409704096       16.9336075047       10.7422331955
  C        19.0710527521       17.9345760261       13.1713289441
  C        19.0630967984       17.9295715011       14.5930444261
  C        17.8524838870       17.8312087372       15.3486549590
  C        46.8015015861       17.2161774717       10.1562855433
  C        45.5064355464       17.1466668390       10.8947263854
  C        45.2996851131       16.1656912584       11.8771032904
  C        44.1146418981       16.1404500401       12.6080692204
  C        43.1048447659       17.0957419776       12.3794352144
  C        43.3076493507       18.0545238824       11.3682600278
  C        44.4938315081       18.0839779676       10.6384167272
  C        41.8519518034       17.1036974009       13.1706035281
  C        41.8627800296       17.1138774720       14.5927679215
  C        43.0743545669       17.2178201077       15.3461185421
  C        20.3067645314       17.9376993748       15.3054538272
  C        20.2966146827       17.9141860517       12.4930969134
  C        46.7865656298       17.2341367442        5.8853594537
  C        45.4866373770       17.1361866564        5.1623529833
  C        45.2665075513       16.1400715120        4.1989916768
  C        44.0803726822       16.1194031292        3.4692447860
  C        43.0848333114       17.0921466227        3.6852946456
  C        43.2966712960       18.0600509961        4.6848504881
  C        44.4835316736       18.0867375813        5.4100909917
  C        41.8365332057       17.1145228239        2.8915598707
  C        41.8550167946       17.1174463254        1.4702899127
  C        43.0709910127       17.2161250538        0.7231306908
  C        46.1530062163       26.6371512395        0.7262851896
  C        46.1622270130       26.6561022151        3.5359044792
  C        14.0409178134       17.8294296739        5.7067554877
  C        15.3559422822       17.9007790275        5.0081598665
  C        15.6236725819       18.9198821381        4.0822187705
  C        16.8480665288       18.9581712839        3.4200281913
  C        17.8299534375       17.9764171634        3.6594180469
  C        17.5681667315       16.9841357626        4.6212818553
  C        16.3458714471       16.9454368774        5.2871623639
  C        19.0959640706       17.9573013562        2.8911956012
  C        19.0762045232       17.9407871508        1.4700194073
  C        17.8588360222       17.8359585202        0.7250031467
  C        28.8052905002       14.0833649806       10.3956324603
  C        28.1914073039       12.9110121036       11.0805051871
  C        28.9138341119       12.1716017548       12.0285603236
  C        28.3143409476       11.0965789370       12.6790187165
  C        26.9788460933       10.7381955058       12.4056560457
  C        26.2785283827       11.4576150136       11.4208584060
  C        26.8756651613       12.5329459885       10.7684995666
  C        26.3098033418        9.6596020466       13.1672797298
  C        26.2999839527        9.6862770594       14.5881893538
  C        26.8028756225       10.8003101585       15.3323066765
  C        32.1796732792       21.2360621767       10.1438479309
  C        32.7800026160       22.3959422572       10.8699112521
  C        32.0288989481       23.0798118957       11.8383585260
  C        32.5986800425       24.1203189948       12.5660582025
  C        33.9359045766       24.5053005903       12.3480682105
  C        34.6705381877       23.8384847256       11.3494531885
  C        34.1026716378       22.7929029962       10.6229100824
  C        34.5615262325       25.5823501620       13.1504633808
  C        34.5396108784       25.5573312012       14.5723992204
  C        34.0227035146       24.4440050461       15.3080305649
  C        25.6933177424        8.6077414561       15.3081958736
  C        25.6719388817        8.6093411709       12.4949666311
  C        32.0719920076       21.1986125600        5.8779912430
  C        32.6416455057       22.3646037142        5.1365130449
  C        31.9037211888       23.0259979541        4.1422027254
  C        32.4782611679       24.0632204705        3.4087112912
  C        33.8051045020       24.4723665652        3.6521904061
  C        34.5228932710       23.8273686669        4.6775422435
  C        33.9538697340       22.7853612796        5.4046888997
  C        34.4480745837       25.5569035517        2.8722458950
  C        34.4788680623       25.5454811566        1.4502598007
  C        33.9916603080       24.4395771078        0.6846476502
  C        40.6147111710       17.1092925653        0.7516405383
  C        40.6085435064       17.1474344249        3.5621466672
  C        28.7391954089       14.0656235606        5.8150300850
  C        28.1348088203       12.9184980613        5.0771212794
  C        28.8674169769       12.2413529285        4.0903149905
  C        28.2921047004       11.1811927630        3.3941212271
  C        26.9684802241       10.7743768348        3.6576557447
  C        26.2536661028       11.4408338175        4.6707512746
  C        26.8273359708       12.5001883622        5.3701894996
  C        26.3282920822        9.6831327293        2.8858008058
  C        26.3108655912        9.6986070436        1.4639985871
  C        26.8054174192       10.8076786866        0.7082162083
  C        18.1354173201        3.1809434394       10.3171400064
  C        17.4060550355        4.2781432411       11.0157579418
  C        16.3901496239        3.9997476934       11.9430612884
  C        15.7423688095        5.0396995504       12.6065469809
  C        16.0944623215        6.3834124428       12.3671026082
  C        17.0840756684        6.6529929097       11.4035978234
  C        17.7332215252        5.6156724188       10.7385543196
  C        15.4699892238        7.4910535843       13.1301262034
  C        15.4851789810        7.4903297289       14.5518414292
  C        16.1867724997        6.4967366564       15.3050046863
  C        42.9457506745       31.8595270454       10.0728558474
  C        43.6460971051       30.7717944332       10.8167797786
  C        44.5915555305       31.0931039970       11.8029158815
  C        45.1972099164       30.0875507661       12.5506133908
  C        44.8707912233       28.7344968095       12.3357082314
  C        43.9450481283       28.4201551233       11.3224197889
  C        43.3363054105       29.4253142734       10.5743434098
  C        45.4883486322       27.6552013502       13.1389103165
  C        45.4925049742       27.6808226772       14.5606015258
  C        44.8054729566       28.6889085004       15.3072228879
  C        14.8561551223        8.5627915880       15.2642022407
  C        14.8747085030        8.5628148363       12.4515349471
  C        42.9464221323       31.9616657359        5.8089923694
  C        43.6917096223       30.8855017825        5.0955842193
  C        44.6561853119       31.1914206604        4.1231755229
  C        45.2776868319       30.1718366509        3.4054246911
  C        44.9539750814       28.8215235709        3.6431517371
  C        44.0206475707       28.5238413065        4.6540697927
  C        43.3924169529       29.5406083315        5.3662731322
  C        45.5629092726       27.7240967362        2.8578735537
  C        45.5331150693       27.7173519897        1.4365782768
  C        44.8268026069       28.7075808945        0.6836152139
  C        35.0966949460       26.6346856630        0.7499529649
  C        35.0579515610       26.6138755792        3.5605176368
  C        18.1485955099        3.2469132331        5.7065414321
  C        17.4299882056        4.3436874987        4.9972010284
  C        16.4145948429        4.0523761398        4.0738392863
  C        15.7661953025        5.0829859523        3.3985042384
  C        16.1209646338        6.4282172998        3.6210923730
  C        17.1125447226        6.7116435956        4.5781195777
  C        17.7603180463        5.6827547410        5.2578282180
  C        15.4903944861        7.5238861508        2.8486555984
  C        15.4961992185        7.5072375003        1.4275191050
  C        16.1929791342        6.5055486476        0.6808198662
  H        10.6723390404       12.4658698602        3.9044241227
  H        11.6944801758       10.5509816919        2.6626058790
  H        15.3913996729       11.1681742639        4.7724663837
  H        14.3510157203       13.0709632243        6.0176909718
  H        13.3759578331       11.6309634941        1.2012967745
  H        50.3224073140       22.7482507690        3.9867006465
  H        49.3192141829       24.6226453050        2.6806099196
  H        45.6420664064       24.1615230457        4.8641229013
  H        46.6630473459       22.2906370855        6.1724825436
  H        47.6294868774       23.5757887054        1.2462100356
  H        14.8720498714        8.5881122679        4.6085576045
  H        50.2869685886       22.7028902547       12.0602079380
  H        49.2689114102       24.5757270684       13.3602665649
  H        45.6101718504       24.1089733346       11.1462314253
  H        46.6523501702       22.2536530984        9.8319749580
  H        47.6075110839       23.5517738599       14.7968662999
  H        40.6259086456       17.0687669371       11.4098403139
  H        48.6870736184       14.0950703824        7.8000664223
  H        10.6811376843       12.4666807145       12.0934360342
  H        11.6893104661       10.5247025711       13.2971255295
  H        15.3931167103       11.1583920847       11.2052691886
  H        14.3647072145       13.0867979612        9.9899876415
  H        13.3755600508       11.6219081231       14.7531178960
  H        47.9301159957       14.2185050896        9.7109378112
  H        47.7799017273       14.3734886548        6.4953784323
  H        49.0823223472       18.5518756491       10.8671083552
  H        10.4160852749       14.1343120134        7.9988575994
  H        24.4853129318        3.0228868865        3.9202901316
  H        25.6320485305        4.8789784034        2.6948143256
  H        23.2656739860        7.7521992999        4.8493461422
  H        22.1367788361        5.8864428989        6.0763383986
  H        23.8189895140        5.7857173015        1.2716057617
  H        36.3605988109       32.1884606763        3.9810013732
  H        35.2161545967       30.3690194337        2.7143134511
  H        37.4737925054       27.4360900863        4.9057754998
  H        38.5982851364       29.2687052267        6.1820224258
  H        36.9904911365       29.4502994328        1.2994717702
  H        25.7600907345        8.6002001630        4.6519984804
  H        36.4525066866       32.2383531361       12.1140663739
  H        35.3428072675       30.4230797697       13.4124585319
  H        37.5476003238       27.4850946265       11.1726842989
  H        38.6315977166       29.3121327467        9.8612421067
  H        37.0291869236       29.4679552756       14.8522198911
  H        46.1090372860       26.5875061308       11.3856015324
  H        44.6683551233       35.1162147159        7.8139926499
  H        24.4309621675        3.0367212744       12.0892645169
  H        25.5611222668        4.8753803228       13.3431542639
  H        23.1648153171        7.7659131069       11.2459448735
  H        22.0461909398        5.9152980508        9.9918415182
  H        23.7896144222        5.7879514335       14.8230584821
  H        44.9540581511       34.3905446506        9.6952468661
  H        44.9021007050       34.2068586970        6.4907171365
  H        40.6662309586       33.2091560816       10.8532654310
  H        23.1503601145        1.9578015458        8.0056122506
  H        25.7770068821       19.6547452055        3.9321577254
  H        23.6133145685       19.7094705091        2.6897055785
  H        22.3134781606       16.2019021593        4.8117676430
  H        24.4863059929       16.1571365810        6.0484298052
  H        23.7044845770       17.6779808501        1.2405792807
  H        35.2065400898       15.3970727938        4.0566351816
  H        37.3146953326       15.3770660621        2.7262909637
  H        38.6689083866       18.8692285031        4.8403885140
  H        36.5457472357       18.8834030365        6.1632827348
  H        37.2208429245       17.3656305986        1.2457957117
  H        20.3285268357       17.9719983618        4.6504504991
  H        35.1407734783       15.4531957375       12.1059043171
  H        37.2819472216       15.3760320421       13.3866205681
  H        38.7245418639       18.7636651752       11.1619331401
  H        36.5829446856       18.8151509403        9.8720195841
  H        37.2271060979       17.3488887580       14.7966687097
  H        35.1660650240       26.6749393222       11.4069814273
  H        28.4909956536       21.0817166270        7.8872645924
  H        25.7646080728       19.6274003247       12.1685375913
  H        23.5747844312       19.6941253934       13.3748928828
  H        22.2912182525       16.1989868637       11.2219655760
  H        24.4797066496       16.1570663372       10.0083435570
  H        23.6929648022       17.6675128775       14.7899355856
  H        29.0147868356       21.7151842255        9.7353128045
  H        29.2122837026       21.6884420776        6.5657586549
  H        32.0618674467       18.5711593934       10.9306440016
  H        27.3633006967       19.0223359605        8.0632180988
  H        14.8521668273       19.6682408973       12.1125722247
  H        17.0199077353       19.7235106437       13.3500256878
  H        18.3030075019       16.1984252591       11.2466231921
  H        16.1315172403       16.1589159225       10.0085120919
  H        16.9120417976       17.7193481426       14.8170117627
  H        46.0853227089       15.4369213959       12.0622834758
  H        43.9571431113       15.3728560683       13.3626280648
  H        42.5365814736       18.8001663603       11.1856276032
  H        44.6658092068       18.8398523645        9.8756455515
  H        44.0136354716       17.3300779058       14.8121665376
  H        20.2943445673       17.9445866863       11.4049893041
  H        46.0399876153       15.3955443493        4.0246665752
  H        43.9118095258       15.3450819036        2.7239927985
  H        42.5337957711       18.8162990518        4.8576789855
  H        44.6677948087       18.8521944528        6.1598501557
  H        44.0076845702       17.3260543076        1.2619415315
  H        46.1991895047       26.6827141005        4.6233447531
  H        52.7411857650       21.0626249024        8.1946315173
  H        14.8628143623       19.6754543947        3.8996512612
  H        17.0575715946       19.7515086732        2.7057542556
  H        18.3191929179       16.2201059260        4.8111589343
  H        16.1266835209       16.1682345834        6.0152260289
  H        16.9232550509       17.7274024437        1.2654053496
  H        52.3224779415       21.6735949642        6.2946132972
  H        52.0134959372       21.7025011117        9.4954877252
  H        49.0676402524       18.6082285167        5.2040320220
  H        13.2473502550       19.0164208611        7.9761257705
  H        29.9417247633       12.4551885751       12.2430894238
  H        28.8750560076       10.5224697563       13.4134352319
  H        25.2465348640       11.1901835495       11.2032676665
  H        26.3326280727       13.1109153231       10.0248347721
  H        27.1612729615       11.6708431529       14.7913353368
  H        31.0017287954       22.7704297426       12.0157974100
  H        32.0098127462       24.6499924820       13.3117257731
  H        35.7058794827       24.1244594359       11.1754235514
  H        34.6758182903       22.2539293317        9.8719838277
  H        33.6747911327       23.5730395810       14.7598285850
  H        25.6999714212        8.5898497144       11.4069298961
  H        30.8789197132       22.7113413612        3.9559786910
  H        31.8982965930       24.5768121619        2.6447692701
  H        35.5488465995       24.1316067010        4.8744133462
  H        34.5162624943       22.2671691833        6.1777489538
  H        33.6214466624       23.5641567414        1.2106358021
  H        40.6061759577       17.1212260402        4.6501762669
  H        32.5182206190       14.1358626804        8.2637960085
  H        29.8869963544       12.5613819068        3.8870910896
  H        28.8677494606       10.6510660832        2.6385080748
  H        25.2293704992       11.1395283703        4.8803158965
  H        26.2723402294       13.0302812122        6.1405343084
  H        27.1641412262       11.6844233702        1.2393507041
  H        33.3001812528       14.2036562865        6.4418108165
  H        33.4040801583       14.4157053555        9.6111084835
  H        32.0930196775       18.5697204067        5.1774611971
  H        30.1915779062       14.1352932757        8.0894566384
  H        16.1180049972        2.9632371892       12.1292990070
  H        14.9527825724        4.8203045219       13.3220512995
  H        17.3667422877        7.6858562163       11.2107604371
  H        18.5154970538        5.8183745472       10.0109736327
  H        16.7534180725        5.7394649046       14.7714991239
  H        44.8278301950       32.1401863072       11.9771179795
  H        45.9370557672       30.3412974136       13.3065807164
  H        43.6824165544       27.3780780618       11.1522508581
  H        42.5998158544       29.1900089448        9.8095467507
  H        44.2301785643       29.4367203992       14.7689158474
  H        14.8510674318        8.5460946729       11.3633111483
  H        44.8996776042       32.2341046947        3.9316759603
  H        46.0245282780       30.4130732062        2.6521254668
  H        43.7638236825       27.4840990605        4.8457494694
  H        42.6460568708       29.3178330227        6.1248608743
  H        44.2684017230       29.4705459530        1.2181991437
  H        35.0084720912       26.6264790958        4.6477497690
  H        36.6053744619       35.1339928205        8.1806880189
  H        16.1434234389        3.0127990825        3.9042608692
  H        14.9737406013        4.8561455974        2.6885643061
  H        17.3962094777        7.7470969141        4.7548351383
  H        18.5433957784        5.8932495846        5.9823603355
  H        16.7644988606        5.7553738921        1.2192594183
  H        36.2790329870       34.4820824203        6.2732514003
  H        36.3813807762       34.2088266178        9.4994831421
  H        40.5791632668       33.2019317220        5.1538534504
  H        17.4710813351        1.9474920538        7.9740350838
  H        29.1846596172       19.4083475446       12.4403195662
  H        28.9087028296       18.9828247901        3.7083333754
  H        32.4119014809       16.5114119227        4.0126902258
  H        31.2169831302       15.5953247706       12.5117521651
  H        28.3534367205       17.9184612271       14.6952246889
  H        29.4649605269       15.5709353347       14.6127845146
  H        30.7542005550       20.7818216204        1.4428184316
  H        32.6726877080       15.5511891980        1.6909752899
  H        28.3141531063       17.8887572849        1.7981681979
  H        32.4372707704       18.5241295701       15.6695572466
  H        18.8536495102        0.8690763643       12.3351301288
  H        40.5282592347       35.2288488981        3.9520772263
  H        42.3239906932       34.4189518552        3.5902818103
  H        22.0875174012        0.6924139670       12.3513903819
  H        11.5968307105       18.7124228770       12.3825150945
  H        52.2647677680       18.4312768992        3.6776038036
  H        49.2551382638       16.4764586057        3.5843459698
  H        10.1495595307       15.7983055277       12.2929648381
  H        50.8499021325       17.6925988725        3.9540863318
  H        10.0456767718       17.3946844830       12.0519347223
  H        20.2151622234        0.0023177885       12.0419141072
  H        39.1838233636       36.1243460017        3.6864361285
 Ni        30.2315587837       17.2022105499        3.0814012089
 Ni        31.4070294921       16.2695683427       -0.1687571506
 Ni        30.0575028317       19.1576382763       -0.3329359212
 Ni        30.0605033061       17.4414896308       13.0792177078
  O        10.6498883638       14.3651453823        5.4858130934
  O        12.6130790647       14.6574570778        6.5838802526
  O        49.1477674812       16.8458782474        7.9898249281
  O        50.3501002473       20.9361813012        5.6481866525
  O        48.3484720034       20.5933048902        6.6660017732
  O        11.0510306852       17.0540615051        6.5006739250
  O        50.3208156775       20.8817445175       10.4069065410
  O        48.3466740637       20.5867585771        9.3271286111
  O        49.5433756774       18.2484112696       10.0684006701
  O        12.3589259012       18.6246734869        7.9996885222
  O        48.6931799582       14.1486226022        6.7513198140
  O         8.2098091286       14.2104977275        9.3225589083
  O        10.7352889910       14.5068025678       10.6643349686
  O        12.5717161491       14.5827635426        9.3285323716
  O        22.8443972554        2.0422081567        5.4874968145
  O        21.6058085929        3.5922983275        6.5893050389
  O        42.0580330222       34.1372480720        7.9789110925
  O        37.9811621349       33.1360055142        5.5722358112
  O        39.2173569526       31.5750287328        6.6658467982
  O        20.3084063634        1.0395513091        6.5019995986
  O        38.0241070284       33.1843439742       10.4159814299
  O        39.2183878386       31.5828847689        9.3274284358
  O        40.6521133087       33.7691430922       10.0601630610
  O        18.2558209060        1.3764002057        7.9967660223
  O        44.6222487924       35.1005087069        6.7587914377
  O        24.2054122334       -0.0000131279        9.3207621289
  O        22.7527547346        2.0569945305       10.5834364752
  O        21.6241578757        3.5955793572        9.3421654846
  O        27.4694037022       18.6970018205        5.4851128094
  O        26.6930857120       16.9197637163        6.6659478833
  O        30.6340613123       19.3533811462        8.0147363118
  O        33.5909729300       16.2792139998        5.6628716223
  O        34.2750905499       18.1663620423        6.7387408283
  O        29.5411908745       17.0049377261        6.5716612306
  O        33.5517318041       16.3377853506       10.4124318123
  O        34.2973791290       18.2374364730        9.4028246172
  O        31.6506568627       18.3148019524       10.0871461697
  O        30.2922599401       15.1007284828        8.0872912829
  O        28.5483824690       21.0261976508        6.8338724729
  O        28.5118376422       20.9545288334        9.3977589077
  O        27.4575113771       18.6795558723       10.6561579906
  O        26.6906310764       16.9267883380        9.4168956758
  O        13.1470132881       18.6936620309       10.5864293058
  O        13.9181638340       16.9160668956        9.4042001829
  O        50.5959209846       19.3503083229        8.0207649506
  O        47.6819293125       16.3273085116       10.4174813431
  O        46.9503722040       18.1757638413        9.3252969367
  O        11.0690253476       17.0158666583        9.4895752531
  O        47.6753937462       16.3359318666        5.6525848169
  O        46.9271581909       18.2360008148        6.6644867443
  O        49.5684338078       18.3177701845        5.9823084415
  O        10.3187016937       15.1001588008        7.9971187157
  O        52.6707468664       21.0280034543        9.2418214252
  O        12.1468189308       20.8913566907        6.6733117057
  O        13.1052549368       18.6142155547        5.3260957477
  O        13.9556434666       16.9867598542        6.6652690455
  O        29.9891743336       14.4339423177       10.7285649100
  O        28.0848330836       14.6495957734        9.4995743126
  O        32.0749507785       16.8511417616        8.0663341412
  O        30.9640409199       20.9522078875       10.4017945699
  O        32.9444946853       20.5987318262        9.3319368433
  O        29.5548322147       17.0662005718        9.5605796364
  O        30.8471475310       20.8819733717        5.6560339496
  O        32.8677966370       20.5833604937        6.6639088391
  O        31.6722021585       18.2417818427        5.9877543018
  O        28.2508820259       18.6287142792        8.0627573844
  O        32.4927453185       14.2104782540        9.3315862058
  O        32.4079725296       14.2078594576        6.8265792049
  O        29.9127932606       14.4392547287        5.4865433998
  O        28.0322593734       14.5851137901        6.7490881508
  O        17.8892159998        1.9665249686       10.6627682283
  O        18.9561819318        3.5271122607        9.4079697644
  O        39.1684733440       34.1386153919        7.9971580372
  O        43.2801911818       33.0588688624       10.3317108870
  O        42.0343494182       31.5064562546        9.2415735959
  O        20.3174748110        1.0365657051        9.4800730201
  O        43.2760942317       33.1825716908        5.5748989021
  O        42.0052228959       31.5841045922        6.5830030844
  O        40.5788361918       33.7748521778        5.9357923506
  O        22.3672825033        1.3845115021        7.9979584632
  O        36.6728454251       35.0996644726        9.2333459197
  O        16.4457122806        0.0641439605        6.6682575693
  O        17.9364294667        2.0432294647        5.3264133136
  O        18.9190414595        3.5931522684        6.6658337771
  O        29.7809433094       18.7583406991        4.0868092067
  O        29.8568390335       18.9213975491       11.9215499089
  O        31.4943952418       16.1884096689        4.0832251103
  O        31.2264379783       16.4195319863       11.9847976391
  O        32.7313068418       16.4247240183        1.2560942877
  O        29.2791387352       17.8836921288        1.6636269193
  O        30.2981679687       15.9818865756       14.3292436178
  O        31.6749911373       18.1003216280       15.2412858561
  O        31.0051337926       19.8617803698        1.2491112770
  O        29.0222254141       18.4695280778       14.2502581822
  O        39.4568552068       35.2436698294        4.0019665643
  O        19.1415934016        0.0045823642       11.9904759757
  O        41.9694725891       35.1726561667        4.0870671000
  O        21.6912863505       -0.0692613231       11.8959915902
  O        51.3648060262       18.6143886334        4.0053205249
  O        10.7510099035       18.7470834735       11.9050488242
  O        50.0795206706       16.4127663109        4.0917462913
  O         9.5238392333       16.4832027753       11.9912150673
 Zr         9.2969277446       16.0527454984        6.1823491317
 Zr        49.8362481491       16.0069032099        9.7466104047
 Zr        22.0734806502        0.0301278202        6.1888359460
 Zr        42.4610162478       35.1536815870        9.8009321865
 Zr        29.5750646932       19.0348744125        6.2812573395
 Zr        29.5631837310       19.1710530787        9.8223975836
 Zr        11.0377544262       19.0522716720        9.8279080179
 Zr        11.0435493909       19.1550758750        6.2512002240
 Zr        31.3209537382       16.0860753419        9.8632467996
 Zr        31.3672417164       15.9703402321        6.3006298669
 Zr        18.6013114401       -0.0012928693        9.7634885449
 Zr        18.5068572360       -0.0075473546        6.2136214763
 Zr        12.3014474624       16.3233710909        7.9905016599
 Zr        48.6164550372       18.8329759547        8.0107073808
 Zr        20.3154212435        2.4738903307        7.9902814796
 Zr        40.6433559048       32.6872144722        7.9781051994
 Zr        28.3148583012       16.3115069323        8.0914149849
 Zr        32.6165492477       18.8274322598        8.0525804271
  H        32.2113794960       17.0120145267        1.8762067211
  H        30.4363416900       19.2996231128        1.8572082022
  H        28.9425500933       20.0584722933       -0.0826014856
  H        31.1313969907       14.9027319304        0.2685541066
