     569
 i =      173, E =     -4729.4727394879
  C        11.8584338800       14.0533862254        5.7415656033
  C        12.4558345144       12.8902474307        5.0233683520
  C        11.7043303507       12.1719141958        4.0811188099
  C        12.2805943189       11.1096731256        3.3887085677
  C        13.6209076392       10.7392289187        3.6169265016
  C        14.3538039393       11.4420902365        4.5911343911
  C        13.7810001002       12.5070496413        5.2827338666
  C        14.2604531150        9.6486263115        2.8434767716
  C        14.2558016888        9.6565761746        1.4217677003
  C        13.7425646166       10.7586369673        0.6678174641
  C        49.1263960876       21.2335235848        5.8797455004
  C        48.5495383460       22.4012338858        5.1526118628
  C        49.2997450538       23.0689097769        4.1719673429
  C        48.7327522946       24.1079499372        3.4387221001
  C        47.4020151793       24.5091656488        3.6669760292
  C        46.6708341142       23.8598598940        4.6800391173
  C        47.2333248041       22.8150154095        5.4094437025
  C        46.7718597677       25.5868789952        2.8696784252
  C        46.7610812516       25.5573500401        1.4479244097
  C        47.2610177052       24.4422337367        0.7044729846
  C        14.8597880306        8.5702634755        0.7084928100
  C        14.8911961699        8.5966266202        3.5201003622
  C        49.1128392707       21.2035178211       10.1453725171
  C        48.5274320287       22.3647239618       10.8725348576
  C        49.2667280210       23.0257645031       11.8651984645
  C        48.6902831430       24.0602455686       12.5966360862
  C        47.3596980688       24.4566152646       12.3586490374
  C        46.6391555602       23.8112993744       11.3354810952
  C        47.2128126061       22.7754498783       10.6037117034
  C        46.7212701162       25.5316025541       13.1496349816
  C        46.7332469115       25.5280898671       14.5713267624
  C        47.2487122372       24.4288942618       15.3277137528
  C        40.6318056430       17.1182838259       15.3374879778
  C        40.6594106717       17.1871681780       12.5292691098
  C        11.8824117733       14.0863411227       10.2853943059
  C        12.4714066652       12.9101228668       10.9893703444
  C        11.7140483311       12.1776627527       11.9161840537
  C        12.2803923576       11.0950715610       12.5846148347
  C        13.6188453980       10.7204357641       12.3521266952
  C        14.3564986497       11.4350446650       11.3903406807
  C        13.7913072714       12.5163262772       10.7176464898
  C        14.2525039241        9.6237910820       13.1226243583
  C        14.2515981616        9.6440067009       14.5444741366
  C        13.7418274310       10.7529960847       15.2915600092
  C        22.5127195528        3.2434381398        5.7535775822
  C        23.2309992077        4.3466573038        5.0543262091
  C        24.2287253397        4.0620100273        4.1103039509
  C        24.8599897628        5.0983449070        3.4274327644
  C        24.5090510473        6.4412988869        3.6687892789
  C        23.5395267266        6.7175831122        4.6499566879
  C        22.9036477602        5.6829629110        5.3313136697
  C        25.1175642685        7.5450466880        2.8915358954
  C        25.0851940584        7.5393618434        1.4702501176
  C        24.3784054146        6.5414887502        0.7270022189
  C        38.2968559073       31.9275039540        5.8528060404
  C        37.5530552813       30.8390146335        5.1541632535
  C        36.5854688150       31.1460122634        4.1847682322
  C        35.9532661170       30.1282630116        3.4755950508
  C        36.2729771824       28.7765859320        3.7116792003
  C        37.2091519089       28.4771181252        4.7197020250
  C        37.8452563647       29.4938054857        5.4285709938
  C        35.6632959433       27.6885352124        2.9118849707
  C        35.7032302697       27.7048918772        1.4898931975
  C        36.4136617999       28.7077965639        0.7576323288
  C        25.7070777080        8.6090927740        0.7487821975
  C        25.7200226857        8.6174221424        3.5602524835
  C        38.3304301268       31.9600802257       10.1614776044
  C        37.6144733825       30.8875516109       10.9124600973
  C        36.6801959041       31.1977025592       11.9131311722
  C        36.0700154211       30.1816153155       12.6469421638
  C        36.3785133697       28.8274720964       12.4055389642
  C        37.2943468468       28.5273085767       11.3779826980
  C        37.9061401752       29.5398677812       10.6449271373
  C        35.7625879679       27.7292705777       13.1877355619
  C        35.7533413125       27.7260527276       14.6108304822
  C        36.4359968471       28.7191226618       15.3808772590
  C        46.1353281486       26.6207871307       15.2814276230
  C        46.0871524484       26.5798296175       12.4735461483
  C        22.4589784085        3.2538241093       10.2568734515
  C        23.1508487891        4.3616953250       10.9810916036
  C        24.1540857067        4.0744207098       11.9199584483
  C        24.7806331329        5.1039833791       12.6173047895
  C        24.4230070048        6.4489772282       12.3973135332
  C        23.4424010760        6.7296579805       11.4273377698
  C        22.8113379908        5.7003124632       10.7304320199
  C        25.0545390300        7.5460971032       13.1701611954
  C        25.0529621997        7.5394024828       14.5925468106
  C        24.3611164702        6.5426259026       15.3502913724
  C        26.5626711456       17.8267293701        5.7836590674
  C        25.2638413740       17.8825637108        5.0582756622
  C        25.0172460959       18.8829312976        4.1048471748
  C        23.8092881044       18.9094615965        3.4128764758
  C        22.8156961219       17.9390489129        3.6526839906
  C        23.0581066663       16.9624256815        4.6367379539
  C        24.2673104990       16.9303486172        5.3271852885
  C        21.5498542069       17.9296181336        2.8817123002
  C        21.5579715853       17.9195165432        1.4597096773
  C        22.7672160332       17.8013794766        0.7040861697
  C        34.4439844623       17.1813303565        5.9608328723
  C        35.7313472560       17.1214375376        5.2121215273
  C        35.9178612910       16.1639690198        4.2025696925
  C        37.0928573165       16.1475587751        3.4558246665
  C        38.1146169572       17.0860178388        3.6996165847
  C        37.9302236163       18.0230697713        4.7348748564
  C        36.7522121174       18.0468761457        5.4773618238
  C        39.3672496153       17.0919553155        2.9095512448
  C        39.3663418115       17.1140926028        1.4873150184
  C        38.1618120642       17.2401136870        0.7262245069
  C        20.3141437227       17.9422693091        0.7478291989
  C        20.3238861224       17.9250011636        3.5602962913
  C        34.5135076546       17.2246669390       10.1431643919
  C        35.8023311056       17.1727263210       10.8850182578
  C        36.0185686187       16.1793808320       11.8522156196
  C        37.1948427029       16.1704079092       12.5953220603
  C        38.1841532713       17.1507106599       12.3875814068
  C        37.9730153895       18.1223526176       11.3914526299
  C        36.7924537091       18.1396402856       10.6537298811
  C        39.4265383334       17.1652147476       13.1897151957
  C        39.3972134355       17.1525533582       14.6107364754
  C        38.1763675977       17.2563134454       15.3491441578
  C        35.1156068872       26.6474129221       15.3104775645
  C        35.1816279461       26.6555282267       12.5004058149
  C        26.5581733156       17.8355447304       10.3166927385
  C        25.2430633147       17.8918125701       11.0102824028
  C        24.9749206287       18.9090005199       11.9399945437
  C        23.7610871526       18.9329093278       12.6198591610
  C        22.7847310605       17.9434186447       12.3888841029
  C        23.0442542080       16.9549350916       11.4221021055
  C        24.2603433706       16.9253907706       10.7438348385
  C        21.5224800204       17.9264431931       13.1619511175
  C        21.5436504498       17.9181945441       14.5829833085
  C        22.7600461248       17.8018088038       15.3275815472
  C        14.0445550284       17.8315984253       10.2840232149
  C        15.3508916446       17.8954797455       11.0022645274
  C        15.6104744754       18.9102442031       11.9360074553
  C        16.8209209432       18.9366631844       12.6249709367
  C        17.8023683467       17.9508696283       12.4003949656
  C        17.5484815643       16.9609731905       11.4330127747
  C        16.3376011361       16.9303774565       10.7454363899
  C        19.0688254226       17.9355986250       13.1702246967
  C        19.0623659325       17.9317053066       14.5918680722
  C        17.8516878500       17.8332659426       15.3471132943
  C        46.8053917839       17.2216590360       10.1621419317
  C        45.5199616389       17.1675327394       10.9151496275
  C        45.3146026200       16.1926360896       11.9037729288
  C        44.1369434544       16.1814848935       12.6464146757
  C        43.1342785234       17.1454919035       12.4229999349
  C        43.3377685319       18.1010987281       11.4087977737
  C        44.5158649591       18.1160616939       10.6668962822
  C        41.8812095644       17.1578337376       13.2114963447
  C        41.8814718503       17.1382437634       14.6333550226
  C        43.0878647105       17.2216040514       15.3966505769
  C        20.3064771637       17.9405227803       15.3036824061
  C        20.2934703813       17.9140678581       12.4910766591
  C        46.7834011699       17.2273278634        5.8934873640
  C        45.4765429982       17.1111323878        5.1880973405
  C        45.2602643741       16.1102167085        4.2286912352
  C        44.0698902073       16.0758569601        3.5070397224
  C        43.0662964113       17.0389295248        3.7283183284
  C        43.2714892059       18.0066663123        4.7294424263
  C        44.4632615074       18.0479274561        5.4458555789
  C        41.8219125395       17.0607035984        2.9289782321
  C        41.8512433943       17.0865307109        1.5084159085
  C        43.0733796436       17.1950782801        0.7729735406
  C        46.1531450252       26.6372595517        0.7261700844
  C        46.1618167529       26.6559242336        3.5358189271
  C        14.0401006311       17.8279435791        5.7060807315
  C        15.3548232104       17.8959129697        5.0053481405
  C        15.6270256504       18.9189472288        4.0852270809
  C        16.8515772315       18.9553066612        3.4229942318
  C        17.8286367774       17.9674723940        3.6566247507
  C        17.5619368273       16.9699124149        4.6114529424
  C        16.3396072578       16.9334293574        5.2775730087
  C        19.0951848433       17.9481912277        2.8890132624
  C        19.0763217300       17.9368431601        1.4679080325
  C        17.8585977712       17.8353250294        0.7233793657
  C        28.8282485401       14.0380814602       10.3508852570
  C        28.2066639545       12.8713713228       11.0342079051
  C        28.9271893679       12.1378615995       11.9893201135
  C        28.3205118315       11.0786468283       12.6580708554
  C        26.9812871390       10.7272040973       12.3934360193
  C        26.2831640886       11.4395101282       11.4014572760
  C        26.8855978632       12.5022593190       10.7336290588
  C        26.3094167654        9.6558366470       13.1623145181
  C        26.3036286381        9.6826338047       14.5832989375
  C        26.8111769220       10.7948393078       15.3267072111
  C        32.1945876697       21.2369594159       10.1506372001
  C        32.7851184746       22.3969551182       10.8742903973
  C        32.0352596298       23.0705442977       11.8517198657
  C        32.6023160678       24.1129129777       12.5780181944
  C        33.9347943415       24.5101082806       12.3513950645
  C        34.6667392954       23.8537286763       11.3430474666
  C        34.1028459631       22.8064144353       10.6171058212
  C        34.5582489938       25.5868144641       13.1549916904
  C        34.5341460663       25.5611141053       14.5774556346
  C        34.0218742017       24.4457132420       15.3124578015
  C        25.6950278524        8.6055181792       15.3043106159
  C        25.6677185099        8.6070048199       12.4914645645
  C        32.0746800324       21.1928496322        5.8810473030
  C        32.6429633219       22.3562511754        5.1379106505
  C        31.9141201020       22.9947019513        4.1225226451
  C        32.4858663284       24.0368924147        3.3943714292
  C        33.8007864874       24.4699092895        3.6589045473
  C        34.5103628892       23.8436020983        4.7023060828
  C        33.9440626543       22.7988303957        5.4270687863
  C        34.4417905770       25.5557163328        2.8790063782
  C        34.4737384314       25.5458175309        1.4561504124
  C        33.9917723927       24.4388553506        0.6892187482
  C        40.6157621259       17.0947668812        0.7819669034
  C        40.5897500720       17.0816700302        3.5909030875
  C        28.7464080992       14.0544519300        5.8068033370
  C        28.1414820670       12.9085175110        5.0762306685
  C        28.8727601728       12.2325297000        4.0870197961
  C        28.2961464555       11.1744871254        3.3901678916
  C        26.9724495557       10.7683540564        3.6546924104
  C        26.2596562882       11.4321202078        4.6711169965
  C        26.8342564081       12.4897901475        5.3715921309
  C        26.3307493883        9.6799294103        2.8812295214
  C        26.3153512807        9.6957185273        1.4592492745
  C        26.8134136684       10.8030528344        0.7028614930
  C        18.1353550527        3.1806979666       10.3170832040
  C        17.4057287717        4.2779041009       11.0156626170
  C        16.3901934353        3.9993406139       11.9432911858
  C        15.7422225550        5.0391845407       12.6067954799
  C        16.0937271072        6.3829658453       12.3669678174
  C        17.0828912824        6.6526932340       11.4030426347
  C        17.7322077213        5.6154789182       10.7380021526
  C        15.4692599112        7.4906021886       13.1299975284
  C        15.4848527659        7.4901447462       14.5517102680
  C        16.1866416774        6.4966858491       15.3048710544
  C        42.9457111861       31.8593688573       10.0728079225
  C        43.6459388437       30.7716898977       10.8167631330
  C        44.5917141031       31.0929470762       11.8026268541
  C        45.1973348277       30.0873554834       12.5502743268
  C        44.8705550216       28.7343419855       12.3356200019
  C        43.9444474506       28.4200562905       11.3226521274
  C        43.3357247764       29.4252453460       10.5746035406
  C        45.4881480563       27.6550632223       13.1388132142
  C        45.4925673119       27.6808712303       14.5605000499
  C        44.8055873565       28.6890023373       15.3071078616
  C        14.8558529258        8.5626387193       15.2640495106
  C        14.8736124661        8.5621441961       12.4513888060
  C        42.9463521179       31.9614241940        5.8089836456
  C        43.6914064041       30.8853231824        5.0954172248
  C        44.6563951066       31.1912299528        4.1234961497
  C        45.2778465244       30.1716434128        3.4057315750
  C        44.9536258164       28.8213632385        3.6429860854
  C        44.0196566192       28.5236816037        4.6533015897
  C        43.3914543084       29.5404495897        5.3655217167
  C        45.5627154769       27.7240021656        2.8577409176
  C        45.5331876842       27.7174208484        1.4364487119
  C        44.8269238235       28.7076903559        0.6834987840
  C        35.0873974032       26.6381034785        0.7562705627
  C        35.0494438301       26.6144975973        3.5668641391
  C        18.1484444403        3.2467665102        5.7065963963
  C        17.4296866246        4.3436205534        4.9972978220
  C        16.4145912895        4.0522515485        4.0736509155
  C        15.7662187039        5.0828288494        3.3982031007
  C        16.1206988720        6.4280928217        3.6209875677
  C        17.1119209302        6.7115576830        4.5783795018
  C        17.7596590761        5.6827093618        5.2581911066
  C        15.4901824663        7.5237801777        2.8485239782
  C        15.4961410731        7.5072296680        1.4273824473
  C        16.1929780521        6.5055800049        0.6806858030
  H        10.6723896651       12.4665034422        3.9037225840
  H        11.6943426001       10.5516065029        2.6618171086
  H        15.3905452866       11.1667776943        4.7734414515
  H        14.3501469177       13.0695889849        6.0189366552
  H        13.3754544676       11.6307444534        1.2010838933
  H        50.3225942452       22.7491791070        3.9875211873
  H        49.3192604996       24.6234854942        2.6813504256
  H        45.6411068872       24.1601154222        4.8627436312
  H        46.6620476115       22.2893636535        6.1710571999
  H        47.6293672710       23.5757862204        1.2461751736
  H        14.8713345693        8.5877210465        4.6084031158
  H        50.2868984861       22.7032206147       12.0599198730
  H        49.2686439464       24.5759908066       13.3599641647
  H        45.6095729865       24.1081138672       11.1467139757
  H        46.6518300597       22.2529646356        9.8324828523
  H        47.6072737189       23.5516697761       14.7968426799
  H        40.6679850716       17.1694577197       11.4411508273
  H        48.6868400401       14.0947501640        7.7998788875
  H        10.6808484094       12.4673954036       12.0941222736
  H        11.6886287280       10.5252519480       13.2977974476
  H        15.3915462305       11.1562383965       11.2036490771
  H        14.3633508060       13.0849103418        9.9882752621
  H        13.3747567553       11.6215041179       14.7529234408
  H        47.9298790019       14.2176768964        9.7107010807
  H        47.7800167342       14.3730980484        6.4948775107
  H        49.0831218510       18.5525447269       10.8673674855
  H        10.4153655641       14.1342984639        7.9987457084
  H        24.4868102491        3.0222617476        3.9219877341
  H        25.6335895040        4.8775025652        2.6951605676
  H        23.2612467577        7.7517387462        4.8420137327
  H        22.1327384352        5.8865344128        6.0705317140
  H        23.8188650158        5.7850366669        1.2694992538
  H        36.3538365639       32.1901618408        3.9882347413
  H        35.2043132781       30.3717766480        2.7251742798
  H        37.4642873973       27.4368367040        4.9111402390
  H        38.5936403778       29.2681591341        6.1846537473
  H        36.9729288884       29.4588600251        1.3077952160
  H        25.7596346978        8.5988984066        4.6478709727
  H        36.4508890878       32.2420704155       12.1125999461
  H        35.3388226524       30.4303259639       13.4129630892
  H        37.5475605728       27.4870393570       11.1842547632
  H        38.6332025650       29.3102427828        9.8697161553
  H        37.0132133166       29.4785024235       14.8611575417
  H        46.1082446478       26.5870254182       11.3855030725
  H        44.6681978840       35.1160730988        7.8139484383
  H        24.4332760165        3.0361170846       12.0840203668
  H        25.5629852896        4.8759647908       13.3380421438
  H        23.1557561603        7.7642356248       11.2500305653
  H        22.0382858636        5.9122218186        9.9954415143
  H        23.7876500818        5.7876072867       14.8203798052
  H        44.9536030655       34.3901031877        9.6948694286
  H        44.9017010841       34.2067086849        6.4906340816
  H        40.6657350660       33.2086358575       10.8528568710
  H        23.1505318260        1.9571572128        8.0053317654
  H        25.7815636578       19.6345101672        3.9212542423
  H        23.6195803375       19.6901602668        2.6794656587
  H        22.3005356596       16.2052375025        4.8280256547
  H        24.4681095138       16.1621449347        6.0699996711
  H        23.7064421065       17.6766961837        1.2354352743
  H        35.1238605297       15.4468977724        4.0077381725
  H        37.2342330743       15.3981213912        2.6801491960
  H        38.7105899300       18.7563286259        4.9277079829
  H        36.5942892756       18.7872801864        6.2581773346
  H        37.2195697243       17.3565830484        1.2540880669
  H        20.3266855945       17.9560416156        4.6483893403
  H        35.2441179898       15.4343894662       12.0188099775
  H        37.3619870514       15.3987904803       13.3436277709
  H        38.7308449833       18.8860275099       11.2292555080
  H        36.6067408834       18.9062441497        9.9051145845
  H        37.2453889867       17.3829447635       14.8037337552
  H        35.1670613109       26.6791001914       11.4123679576
  H        28.5093055774       21.1078833004        7.8775856797
  H        25.7275999914       19.6756672685       12.1096119251
  H        23.5524372006       19.7230125467       13.3379879936
  H        22.2965510769       16.1862190797       11.2380472230
  H        24.4786638593       16.1474875840       10.0161855388
  H        23.6936385635       17.6780237006       14.7867618880
  H        29.0019392359       21.8038869243        9.7468411044
  H        29.1942413574       21.6977223504        6.5332159041
  H        32.1215078960       18.4778722261       10.9812079968
  H        27.3818458492       18.9896292992        8.1100456574
  H        14.8528030421       19.6717267868       12.1066560400
  H        17.0209170792       19.7277006994       13.3445457564
  H        18.2980004324       16.1930181971       11.2531579150
  H        16.1263464909       16.1537979527       10.0142258136
  H        16.9112166241       17.7230635636       14.8152076877
  H        46.0946542868       15.4563515043       12.0826403104
  H        43.9777567016       15.4162879277       13.4029593029
  H        42.5722954946       18.8538066445       11.2318924181
  H        44.6884163876       18.8678505971        9.9003224967
  H        44.0314779037       17.3405516216       14.8718486075
  H        20.2899281888       17.9418667522       11.4029118841
  H        46.0414984482       15.3752988839        4.0486337372
  H        43.9054377136       15.3009374895        2.7614961939
  H        42.5006438414       18.7536107509        4.9072648785
  H        44.6437841605       18.8154310221        6.1944584900
  H        44.0059836586       17.2924661657        1.3209999468
  H        46.1983380654       26.6823088143        4.6232780797
  H        52.7408934906       21.0625284918        8.1946184025
  H        14.8696645771       19.6792187361        3.9075317133
  H        17.0648420942       19.7520030295        2.7135692955
  H        18.3088951219       16.2005721176        4.7958848911
  H        16.1164027083       16.1528664213        6.0008338018
  H        16.9232558151       17.7267162732        1.2642694946
  H        52.3216491401       21.6733362248        6.2949203833
  H        52.0127709216       21.7019092968        9.4954697656
  H        49.0659519062       18.6073270208        5.2048102289
  H        13.2466528957       19.0168260968        7.9758034705
  H        29.9582624839       12.4163758843       12.1954918729
  H        28.8791189479       10.5103720420       13.3985895651
  H        25.2486656968       11.1766092008       11.1904200609
  H        26.3420844901       13.0761408865        9.9871886746
  H        27.1729081310       11.6644493615       14.7862052245
  H        31.0131518482       22.7510238966       12.0400921865
  H        32.0152152281       24.6331640468       13.3315739742
  H        35.6982647588       24.1488733748       11.1620053124
  H        34.6751385947       22.2758162475        9.8595458946
  H        33.6779647137       23.5723499515       14.7658093168
  H        25.6936984216        8.5869032959       11.4034149052
  H        30.9051999469       22.6513248479        3.9047739365
  H        31.9120035314       24.5305251007        2.6131193362
  H        35.5285915196       24.1631405874        4.9142521233
  H        34.5010729181       22.2948859751        6.2133059686
  H        33.6243345090       23.5603009490        1.2119662550
  H        40.5806947646       17.0374888834        4.6783105882
  H        32.5327779063       14.0623562172        7.8220575154
  H        29.8914723563       12.5514774819        3.8793668095
  H        28.8703937129       10.6462272324        2.6322925079
  H        25.2355465593       11.1308864934        4.8814264358
  H        26.2786377208       13.0182731534        6.1423718041
  H        27.1740305061       11.6803684017        1.2320255141
  H        33.3599478292       14.3091734712        6.4311639675
  H        33.4436626047       14.1302642115        9.5705351553
  H        32.0373019426       18.4451933162        5.1333706218
  H        30.1696824088       14.1482573333        8.0967311752
  H        16.1184542690        2.9627626864       12.1297705499
  H        14.9528730830        4.8196026887       13.3225086375
  H        17.3648945323        7.6856506745       11.2097580738
  H        18.5139926133        5.8182016269       10.0099035419
  H        16.7531508799        5.7393251112       14.7713473319
  H        44.8282305962       32.1399958725       11.9766703810
  H        45.9373773863       30.3410031205       13.3060788345
  H        43.6813983032       27.3780380692       11.1527629534
  H        42.5988962235       29.1899373601        9.8101308637
  H        44.2301468679       29.4367021049       14.7688018486
  H        14.8494790458        8.5450957808       11.3631802509
  H        44.9002400160       32.2338906761        3.9323397909
  H        46.0250300073       30.4128082156        2.6527507728
  H        43.7622002191       27.4839919732        4.8444294761
  H        42.6445185850       29.3176216427        6.1235304920
  H        44.2683764158       29.4705529537        1.2180784875
  H        34.9998714502       26.6269252593        4.6540832276
  H        36.6051848701       35.1338806039        8.1807260066
  H        16.1436488267        3.0126399171        3.9038855738
  H        14.9739558828        4.8558775234        2.6880790060
  H        17.3952123713        7.7470650465        4.7553654917
  H        18.5424012373        5.8931592195        5.9830967566
  H        16.7644458096        5.7553726289        1.2191367735
  H        36.2788178282       34.4820310895        6.2734254862
  H        36.3810303348       34.2089028612        9.4996918812
  H        40.5781812449       33.2010658752        5.1542626656
  H        17.4707993967        1.9468357570        7.9739811294
  H        28.7473570145       18.9469854780       12.2066164683
  H        28.7741426147       18.8065667154        3.7661707210
  H        31.6494771483       15.6222103920        3.5668799684
  H        31.4017434381       15.4232689048       12.4881254037
  H        28.0919355488       18.7725888875       14.7667732165
  H        29.5037038001       15.3823432413       14.2196950666
  H        32.3789021812       17.0431246364        1.4191446450
  H        18.8536335469        0.8688749457       12.3353097404
  H        40.5281431417       35.2291507361        3.9522347142
  H        42.3227229969       34.4177293207        3.5911382205
  H        22.0878174910        0.6918801637       12.3513266302
  H        11.5965802595       18.7132437536       12.3826444615
  H        52.2645829647       18.4311144694        3.6772935691
  H        49.2557278921       16.4769996109        3.5841210761
  H        10.1500831296       15.7981035219       12.2926052986
  H        50.8496561473       17.6923469997        3.9542748233
  H        10.0459212843       17.3944664261       12.0520255249
  H        20.2151201384        0.0021682134       12.0419378005
  H        39.1835962354       36.1243455615        3.6862692007
 Ni        30.5217551927       17.5223760507        2.8292837626
 Ni        30.7746354881       16.4045327868       -0.0859839572
 Ni        29.5425927531       18.1935446446        0.5881834255
 Ni        30.2537193193       17.3439741595       12.9924121915
  O        10.6498287588       14.3650728231        5.4857521293
  O        12.6130796681       14.6574018542        6.5838266670
  O        49.1478636987       16.8460417371        7.9896831148
  O        50.3500722796       20.9364351469        5.6483415770
  O        48.3484694049       20.5933215713        6.6659503338
  O        11.0509144659       17.0542145503        6.5004620346
  O        50.3208243124       20.8817647568       10.4068075328
  O        48.3467019269       20.5867744860        9.3270458097
  O        49.5434485531       18.2484618893       10.0684460794
  O        12.3585191652       18.6245503374        7.9996800492
  O        48.6932784658       14.1484744384        6.7512769189
  O         8.2097332326       14.2103667643        9.3226089534
  O        10.7350493205       14.5067484080       10.6643503772
  O        12.5716504419       14.5827248324        9.3285920694
  O        22.8445245667        2.0422711957        5.4873349456
  O        21.6058884883        3.5924973400        6.5890408558
  O        42.0578381867       34.1368996864        7.9787994607
  O        37.9812181688       33.1365069850        5.5724548094
  O        39.2173504827       31.5752810566        6.6657521960
  O        20.3083202375        1.0393963013        6.5017559937
  O        38.0243097613       33.1847169754       10.4158168650
  O        39.2181298221       31.5827788828        9.3277761597
  O        40.6521663609       33.7690591819       10.0600273114
  O        18.2557955471        1.3760997169        7.9967298401
  O        44.6222780672       35.1005169090        6.7587170150
  O        24.2054216066        0.0000193783        9.3207783694
  O        22.7525287900        2.0563782149       10.5832228019
  O        21.6238394122        3.5952350205        9.3414507727
  O        27.4583727165       18.6932842155        5.4937307759
  O        26.6917772897       16.9130626188        6.6706151015
  O        30.6364717302       19.3398815967        8.0651650695
  O        33.5900395346       16.2577413262        5.7512717554
  O        34.2678325567       18.1786393946        6.7441108832
  O        29.5278693291       17.0067619464        6.5874445831
  O        33.6917564708       16.2634971989       10.3201420393
  O        34.3072573832       18.2465195179        9.4019455925
  O        31.6795689874       18.2514927162       10.1441918750
  O        30.2990631416       15.1102997474        8.0814476338
  O        28.5488698423       21.0289360662        6.8319844270
  O        28.5492363311       21.0157109681        9.4037868037
  O        27.4557033601       18.6808483735       10.6564322702
  O        26.6943205636       16.9271402965        9.4157856872
  O        13.1467914514       18.6937846528       10.5863424775
  O        13.9181552334       16.9159064061        9.4039646176
  O        50.5956057112       19.3503504376        8.0205392776
  O        47.6823741685       16.3274107547       10.4173234728
  O        46.9517011667       18.1761498514        9.3246553073
  O        11.0690185954       17.0157848986        9.4897320629
  O        47.6768419885       16.3352866855        5.6537056092
  O        46.9267886345       18.2354752005        6.6643109193
  O        49.5687732467       18.3178506527        5.9821819784
  O        10.3184708153       15.1001967088        7.9970989770
  O        52.6706988130       21.0279957528        9.2418416381
  O        12.1468373497       20.8913447677        6.6731945628
  O        13.1058361902       18.6141592723        5.3259675480
  O        13.9556997805       16.9864196828        6.6653525173
  O        30.0241170650       14.3593613683       10.6549337354
  O        28.0855360953       14.6530966223        9.4948883602
  O        32.0718197031       16.8529671458        8.0642343077
  O        30.9719215742       20.9502885942       10.4106238878
  O        32.9463369545       20.5989481913        9.3361623911
  O        29.5208127480       16.9943527077        9.7420147445
  O        30.8455531743       20.8811011175        5.6624549500
  O        32.8656465284       20.5781787565        6.6705665579
  O        31.6126227440       18.2477626709        5.9874952458
  O        28.2781253248       18.6169145626        8.0813933182
  O        32.5269360264       14.1416705418        9.2479937813
  O        32.4528219889       14.1376388341        6.7478354592
  O        29.9168567917       14.4327307976        5.4899372265
  O        28.0323005976       14.5822038318        6.7425569899
  O        17.8891612328        1.9664681389       10.6627895784
  O        18.9561355307        3.5271012996        9.4079601483
  O        39.1685555557       34.1385833679        7.9971180625
  O        43.2801923516       33.0588457128       10.3316138438
  O        42.0343060830       31.5064665873        9.2415668740
  O        20.3174330598        1.0364651607        9.4801612774
  O        43.2760495519       33.1824696936        5.5748899261
  O        42.0051921180       31.5841096397        6.5830321653
  O        40.5789797312       33.7748990826        5.9355625440
  O        22.3671519723        1.3843401611        7.9978117058
  O        36.6728081308       35.0996196303        9.2333589400
  O        16.4456040179        0.0641587358        6.6682503656
  O        17.9363712635        2.0432538137        5.3264031747
  O        18.9190021703        3.5931521446        6.6658165248
  O        29.6896691104       18.7547524220        4.0956397232
  O        29.6991974255       18.8981684910       11.9858250053
  O        31.4261480221       16.3419769863        4.1849324075
  O        31.5220933711       16.1961665430       11.9004707512
  O        31.5950393495       16.4793813940        1.5752457940
  O        30.3724863107       15.8220262556       14.1800988433
  O        28.9477694932       19.1912572058       14.9862404268
  O        39.4568680496       35.2438361273        4.0019740672
  O        19.1416751398        0.0045159343       11.9904791596
  O        41.9696305736       35.1726794067        4.0870859795
  O        21.6912399239       -0.0694966120       11.8958118844
  O        51.3648240766       18.6143166807        4.0053420497
  O        10.7509212216       18.7472832718       11.9049405706
  O        50.0800760020       16.4128104854        4.0915776353
  O         9.5243384183       16.4830970300       11.9912269969
 Zr         9.2958067969       16.0528507124        6.1821518015
 Zr        49.8347797321       16.0068745061        9.7465831222
 Zr        22.0731173194        0.0290159168        6.1890247217
 Zr        42.4606304188       35.1525703919        9.8005086464
 Zr        29.5683062080       19.0638066229        6.2436670193
 Zr        29.6157402074       19.2631204062        9.8522815552
 Zr        11.0364318703       19.0523791919        9.8274317832
 Zr        11.0424128203       19.1553319485        6.2513335796
 Zr        31.5393917776       15.9168130294        9.8486052182
 Zr        31.3386035530       16.0309021486        6.2575377353
 Zr        18.6008595688       -0.0023152993        9.7636023169
 Zr        18.5063711000       -0.0085542125        6.2134181816
 Zr        12.2995749253       16.3232494478        7.9903821338
 Zr        48.6149673841       18.8330020578        8.0100633675
 Zr        20.3146230251        2.4724649537        7.9900780160
 Zr        40.6424278852       32.6860120544        7.9780222780
 Zr        28.2925236647       16.2809999247        8.0412362249
 Zr        32.6312379353       18.8183724124        8.0668978873
  H        29.1724332504       17.4014393470        1.8239963192
  H        29.5808864242       18.8062842492       14.2652572747
  H        29.1540290466       16.7673866245       10.6277652899
