     574
 i =      231, E =     -4778.8488347021
  C        11.8583149929       14.0536920764        5.7416064056
  C        12.4558659464       12.8904873159        5.0233216436
  C        11.7044941598       12.1723167765        4.0808815733
  C        12.2807724179       11.1100407814        3.3885010038
  C        13.6209813792       10.7394514138        3.6170063356
  C        14.3537523688       11.4421582566        4.5914017759
  C        13.7809305181       12.5071841010        5.2829036298
  C        14.2606678150        9.6488854891        2.8436057229
  C        14.2564122646        9.6569676447        1.4218915722
  C        13.7435022098       10.7591916223        0.6679444871
  C        49.1264963627       21.2333456007        5.8797259256
  C        48.5497460714       22.4011610368        5.1525360089
  C        49.3000028055       23.0689415355        4.1720181252
  C        48.7330455514       24.1080412088        3.4388073316
  C        47.4022608528       24.5091467445        3.6669478754
  C        46.6709637804       23.8596346437        4.6797791610
  C        47.2334204706       22.8147146472        5.4091059021
  C        46.7721249692       25.5869088356        2.8696826246
  C        46.7613438172       25.5574234813        1.4479261872
  C        47.2612906176       24.4423125643        0.7044673798
  C        14.8604569720        8.5706620672        0.7086490475
  C        14.8910551443        8.5966782376        3.5202368112
  C        49.1129675255       21.2034385159       10.1452817025
  C        48.5275815021       22.3646311181       10.8726308295
  C        49.2669958088       23.0258949503       11.8650377850
  C        48.6905913483       24.0604229196       12.5964612148
  C        47.3599133462       24.4565901008       12.3586899927
  C        46.6392051633       23.8110056027       11.3358255701
  C        47.2128239648       22.7750815359       10.6041240129
  C        46.7215099238       25.5316284271       13.1496509270
  C        46.7335566686       25.5282033959       14.5713412791
  C        47.2489842129       24.4289750980       15.3277095979
  C        40.6314197663       17.1472347542       15.3268032627
  C        40.6583617808       17.1857931452       12.5165594506
  C        11.8826540272       14.0865764091       10.2853467418
  C        12.4719658485       12.9104313868       10.9894781969
  C        11.7146349159       12.1777647937       11.9161132085
  C        12.2811286100       11.0952823158       12.5846269289
  C        13.6196825262       10.7209771705       12.3523111891
  C        14.3573618996       11.4358469624       11.3907610040
  C        13.7920145191       12.5170424042       10.7180203603
  C        14.2533991460        9.6243234287       13.1227836948
  C        14.2525756335        9.6445568753       14.5446307696
  C        13.7429325733       10.7536296186       15.2916863384
  C        22.5097607243        3.2442937029        5.7527825394
  C        23.2202966650        4.3519291784        5.0512163465
  C        24.2194705543        4.0754632617        4.1065802526
  C        24.8419338794        5.1173472930        3.4236980167
  C        24.4802238347        6.4574619216        3.6655444691
  C        23.5086839467        6.7257103012        4.6467941095
  C        22.8819618357        5.6855873335        5.3280951893
  C        25.0818447170        7.5658281594        2.8894379706
  C        25.0567300990        7.5571222133        1.4677788050
  C        24.3585088859        6.5547217316        0.7221018267
  C        38.2972524923       31.9267661283        5.8519945278
  C        37.5561221334       30.8381176853        5.1527508822
  C        36.5957458677       31.1429013169        4.1751683243
  C        35.9681421712       30.1237184294        3.4644390538
  C        36.2837315442       28.7718332985        3.7072406234
  C        37.2117122452       28.4751255361        4.7240999506
  C        37.8440531285       29.4931650289        5.4338690917
  C        35.6785660585       27.6827358331        2.9070975604
  C        35.7150905314       27.7020326374        1.4831737443
  C        36.4264843083       28.7025752430        0.7517877581
  C        25.6787698793        8.6271237479        0.7471213404
  C        25.6738466656        8.6440193647        3.5595282744
  C        38.3294518324       31.9612431237       10.1593750799
  C        37.6109954735       30.8909715596       10.9059078099
  C        36.6890508250       31.2021874725       11.9179033805
  C        36.0801059460       30.1863892328       12.6517040313
  C        36.3757877943       28.8313848192       12.3976684189
  C        37.2762524513       28.5308115740       11.3561347904
  C        37.8885415463       29.5429983069       10.6244537508
  C        35.7635236654       27.7339357261       13.1795029531
  C        35.7583842836       27.7283473582       14.6037759164
  C        36.4461614431       28.7160072779       15.3737331420
  C        46.1356137747       26.6208888993       15.2814413950
  C        46.0873983026       26.5798674071       12.4735680205
  C        22.4595726176        3.2547168519       10.2565645448
  C        23.1525025664        4.3643772138       10.9793985455
  C        24.1568583318        4.0794363660       11.9177619346
  C        24.7833010449        5.1105579048       12.6135366551
  C        24.4247204401        6.4551606760       12.3925363317
  C        23.4432895149        6.7336046246       11.4227238531
  C        22.8123113614        5.7026581954       10.7276298108
  C        25.0531402497        7.5542855182       13.1664586970
  C        25.0426039880        7.5503786797       14.5890101104
  C        24.3496738809        6.5529374807       15.3452127825
  C        26.6358884739       17.8209660096        5.7483721804
  C        25.3287177182       17.8699441419        5.0294643844
  C        25.0602836721       18.8732271321        4.0840893681
  C        23.8418313561       18.8973697012        3.4087052318
  C        22.8538726741       17.9221329454        3.6558680522
  C        23.1172303486       16.9435791564        4.6334784666
  C        24.3370427207       16.9141144012        5.3073270733
  C        21.5783730019       17.9107399506        2.8958740822
  C        21.5787979384       17.8945976298        1.4732044594
  C        22.7837110422       17.7717839157        0.7116647927
  C        34.4253842050       17.2248870544        5.9127328630
  C        35.7097960253       17.1640257644        5.1688082787
  C        35.9016325882       16.2158980036        4.1496191094
  C        37.0833261381       16.2028442980        3.4147881972
  C        38.1112927606       17.1310063483        3.6809855230
  C        37.9223075981       18.0537234365        4.7292875736
  C        36.7369673234       18.0769803831        5.4578042467
  C        39.3662268482       17.1420893370        2.8999408652
  C        39.3666493432       17.1635593566        1.4761379182
  C        38.1658716769       17.3034931788        0.7149380973
  C        20.3319679291       17.9160373340        0.7654911451
  C        20.3541969844       17.9126095274        3.5795413858
  C        34.4817330008       17.2465961808       10.1815947245
  C        35.7832252022       17.1762547979       10.9004372848
  C        35.9882165541       16.2106613608       11.8979322331
  C        37.1729400122       16.1982931259       12.6270743798
  C        38.1823179430       17.1494788424       12.3786240667
  C        37.9834797561       18.0876141110       11.3478814685
  C        36.7960939322       18.1066852350       10.6219754722
  C        39.4255555026       17.1728931420       13.1766904275
  C        39.3968941009       17.1809693559       14.5993373931
  C        38.1797244631       17.3096337984       15.3366995912
  C        35.1200034723       26.6495465793       15.3026109989
  C        35.1806388129       26.6616230550       12.4919461670
  C        26.5692488307       17.8280590795       10.3242561645
  C        25.2540676108       17.8735791895       11.0268793381
  C        24.9938802984       18.8733515357       11.9766348327
  C        23.7761963789       18.8981004689       12.6504626750
  C        22.7900542933       17.9230243134       12.3989667830
  C        23.0448164635       16.9488842268       11.4165659212
  C        24.2630308724       16.9218887852       10.7406271179
  C        21.5273628306       17.9020154586       13.1729780731
  C        21.5521338061       17.8880811281       14.5945345238
  C        22.7707430213       17.7685527149       15.3351868826
  C        14.0455886359       17.8285848326       10.2886634000
  C        15.3501630911       17.8849012171       11.0147305407
  C        15.6071776051       18.8879960991       11.9621630002
  C        16.8161215122       18.9081386535       12.6552632758
  C        17.8018670481       17.9280413352       12.4222615489
  C        17.5495950031       16.9488922746       11.4429300138
  C        16.3400224753       16.9241878797       10.7517459307
  C        19.0712474813       17.9099144545       13.1905226256
  C        19.0708568496       17.9031471462       14.6130413461
  C        17.8642386887       17.8037157559       15.3746364695
  C        46.8058977355       17.2202382647       10.1607266201
  C        45.5200155699       17.1642950379       10.9095063988
  C        45.3181518929       16.1980657833       11.9075967076
  C        44.1398515832       16.1890079020       12.6484415726
  C        43.1319197416       17.1447865779       12.4120798013
  C        43.3313855386       18.0897623347       11.3868282120
  C        44.5108501684       18.1040435171       10.6481778666
  C        41.8799505845       17.1631530678       13.1989783146
  C        41.8811143719       17.1579031341       14.6225662664
  C        43.0857591380       17.2483589870       15.3851624857
  C        20.3180391182       17.9114202949       15.3204432026
  C        20.2947947390       17.8924459881       12.5073758213
  C        46.7823875475       17.2291023129        5.8918241668
  C        45.4762198304       17.1200751747        5.1853268379
  C        45.2591362089       16.1331460737        4.2112086561
  C        44.0694006605       16.1104858431        3.4882901010
  C        43.0644493815       17.0702246440        3.7221254236
  C        43.2703448354       18.0222836766        4.7388331117
  C        44.4617963007       18.0527594269        5.4558997408
  C        41.8212787731       17.1038301229        2.9224707264
  C        41.8512658203       17.1258087702        1.4992575896
  C        43.0713281980       17.2309909423        0.7632933650
  C        46.1534142379       26.6373491809        0.7261845828
  C        46.1620004778       26.6559128042        3.5358119182
  C        14.0447376123       17.8299464199        5.7078983622
  C        15.3662308527       17.8993873627        5.0156024094
  C        15.6456712312       18.9159112083        4.0901758228
  C        16.8755191143       18.9486427339        3.4361949038
  C        17.8535262640       17.9637554716        3.6815856008
  C        17.5804539307       16.9750865118        4.6442446655
  C        16.3528536239       16.9421652613        5.3019740015
  C        19.1214154628       17.9353887320        2.9130833249
  C        19.0973147793       17.9148703204        1.4912535578
  C        17.8770100288       17.8091132183        0.7509876122
  C        28.8057603925       14.0886216716       10.3895359896
  C        28.1904248607       12.9157735538       11.0732436612
  C        28.9094263720       12.1803520773       12.0272277057
  C        28.3082829881       11.1064820223       12.6782868992
  C        26.9742369743       10.7454966880       12.4006605793
  C        26.2776564761       11.4610228264       11.4102304738
  C        26.8765840048       12.5347658871       10.7566005774
  C        26.3031222051        9.6678698700       13.1623710582
  C        26.2867531917        9.6971846645       14.5832285255
  C        26.7870024598       10.8122369832       15.3275898875
  C        32.1787546726       21.2478007921       10.1454874070
  C        32.7734829879       22.4141080721       10.8590061986
  C        32.0266498151       23.0864052093       11.8395287381
  C        32.5964515716       24.1252270249       12.5684162190
  C        33.9292357883       24.5213270478       12.3403453318
  C        34.6573332242       23.8678942047       11.3274660659
  C        34.0903306650       22.8234563266       10.5994774670
  C        34.5564685021       25.5937729514       13.1450681795
  C        34.5353020424       25.5655000806       14.5684723225
  C        34.0251112356       24.4497718203       15.3013408022
  C        25.6765685953        8.6200784335       15.3025781249
  C        25.6689115678        8.6154638163       12.4896305196
  C        32.0832977574       21.2003037047        5.8754341345
  C        32.6503814747       22.3556362200        5.1297433074
  C        31.9241764764       22.9935876786        4.1098047127
  C        32.4995615939       24.0305808448        3.3786197311
  C        33.8138370087       24.4672196931        3.6478891926
  C        34.5181489476       23.8438723566        4.6977862955
  C        33.9512432614       22.8001517282        5.4214887874
  C        34.4559670436       25.5507369971        2.8711634428
  C        34.4821969075       25.5445195728        1.4469618093
  C        33.9992162733       24.4405029530        0.6792072437
  C        40.6159206959       17.1343291877        0.7717198107
  C        40.5884753852       17.1329957386        3.5826644330
  C        28.7106734256       14.0982467552        5.7827673585
  C        28.1028728827       12.9517091474        5.0495215222
  C        28.8420475235       12.2385769074        4.0926883733
  C        28.2607742377       11.1766846169        3.4045870650
  C        26.9246887172       10.8001386858        3.6485788088
  C        26.2034910012       11.4982598295        4.6355171746
  C        26.7827884575       12.5606173284        5.3258252149
  C        26.2845127068        9.7060883620        2.8804109002
  C        26.2795587454        9.7166541185        1.4588312129
  C        26.7816102173       10.8226463111        0.7034702407
  C        18.1352016251        3.1805334905       10.3171062438
  C        17.4056589889        4.2778672593       11.0156775656
  C        16.3907047002        3.9994203580       11.9439687913
  C        15.7429148469        5.0393506406       12.6075243066
  C        16.0939868471        6.3831472673       12.3670966873
  C        17.0824300578        6.6527354685       11.4023793252
  C        17.7315510668        5.6154323315       10.7372929645
  C        15.4697857700        7.4908956610       13.1301481572
  C        15.4855496551        7.4905344851       14.5518577768
  C        16.1872406996        6.4970356807       15.3050607164
  C        42.9457909745       31.8592861905       10.0727778346
  C        43.6460200390       30.7717166666       10.8168123500
  C        44.5919063350       31.0929480889       11.8025808892
  C        45.1975603252       30.0873592736       12.5501947233
  C        44.8706722017       28.7343461661       12.3356615628
  C        43.9443902707       28.4200942402       11.3228520688
  C        43.3355829867       29.4252814673       10.5748753249
  C        45.4883125691       27.6550669983       13.1388242791
  C        45.4928184602       27.6809395746       14.5605034818
  C        44.8056790660       28.6889639870       15.3071099228
  C        14.8567126398        8.5631222981       15.2642025803
  C        14.8742357798        8.5625261414       12.4515585406
  C        42.9463323811       31.9612697497        5.8090175896
  C        43.6914823281       30.8852676449        5.0954843043
  C        44.6562860536       31.1911878428        4.1233803114
  C        45.2777637311       30.1716184769        3.4056335630
  C        44.9537159310       28.8213082215        3.6430108096
  C        44.0198949477       28.5236341516        4.6534647341
  C        43.3916256425       29.5403793838        5.3656484363
  C        45.5628605713       27.7239936828        2.8577567464
  C        45.5333618571       27.7174588710        1.4364619383
  C        44.8269590729       28.7076250304        0.6835005843
  C        35.0953641985       26.6377673181        0.7485344566
  C        35.0694689512       26.6057792874        3.5603032144
  C        18.1483040571        3.2465531770        5.7067305031
  C        17.4294682239        4.3434987652        4.9975063991
  C        16.4149362684        4.0521950077        4.0732426871
  C        15.7666046864        5.0828030343        3.3977909616
  C        16.1205106462        6.4281132597        3.6212022959
  C        17.1110174183        6.7115199832        4.5793642732
  C        17.7586844464        5.6826158516        5.2591518937
  C        15.4901814240        7.5238655872        2.8487106596
  C        15.4966034256        7.5075285146        1.4275710140
  C        16.1934310025        6.5058670168        0.6808729471
  H        10.6726309711       12.4671039496        3.9033189131
  H        11.6946239433       10.5521393089        2.6614001481
  H        15.3904194620       11.1667138222        4.7739117741
  H        14.3499230156       13.0697385524        6.0192189699
  H        13.3763120938       11.6312505405        1.2012405656
  H        50.3228829548       22.7492488116        3.9876708324
  H        49.3195833952       24.6236389948        2.6815017288
  H        45.6411544534       24.1597054037        4.8623029924
  H        46.6620555963       22.2887681917        6.1704504949
  H        47.6295258161       23.5758243016        1.2461827731
  H        14.8707503050        8.5875955496        4.6085304718
  H        50.2872371345       22.7034523666       12.0595565429
  H        49.2690154774       24.5762397704       13.3596899690
  H        45.6094878430       24.1075431653       11.1473729610
  H        46.6516840009       22.2522539004        9.8332426338
  H        47.6074662548       23.5517222871       14.7968264053
  H        40.6680989988       17.1533405047       11.4287571469
  H        48.6865687842       14.0950074346        7.7997848951
  H        10.6813593112       12.4673427599       12.0938920833
  H        11.6893983037       10.5253377310       13.2977381943
  H        15.3925219030       11.1573174407       11.2042819696
  H        14.3640091004       13.0859307379        9.9888430406
  H        13.3759308275       11.6221375351       14.7529910346
  H        47.9297413509       14.2191343765        9.7104303112
  H        47.7801327002       14.3746361464        6.4945122798
  H        49.0823596594       18.5520456974       10.8669411323
  H        10.4151321391       14.1344437554        7.9984872157
  H        24.4858765267        3.0378389817        3.9178545282
  H        25.6171354654        4.9028731936        2.6912290041
  H        23.2213863160        7.7573591831        4.8390827004
  H        22.1095317471        5.8824222725        6.0675089773
  H        23.7986566599        5.7971801052        1.2627707109
  H        36.3663761376       32.1866263964        3.9737678210
  H        35.2253353159       30.3658715029        2.7075504171
  H        37.4645480765       27.4352996449        4.9209069367
  H        38.5868092276       29.2689733462        6.1958912155
  H        36.9900938606       29.4507009533        1.3013974162
  H        25.7062578988        8.6289452898        4.6474746221
  H        36.4698955854       32.2470098451       12.1259799543
  H        35.3593672575       30.4350532385       13.4274927024
  H        37.5187215672       27.4898740788       11.1527218618
  H        38.6057442909       29.3136141003        9.8401044877
  H        37.0259127171       29.4739313672       14.8548582039
  H        46.1083354625       26.5869430260       11.3855223100
  H        44.6678098938       35.1158539294        7.8139779929
  H        24.4368371985        3.0415413143       12.0833310625
  H        25.5659045815        4.8835112535       13.3343534572
  H        23.1552946953        7.7676109848       11.2441908906
  H        22.0384342799        5.9132881652        9.9931082917
  H        23.7823215024        5.7945247188       14.8134971053
  H        44.9524357233       34.3891810507        9.6944081911
  H        44.9003674533       34.2062631023        6.4906057410
  H        40.6645163950       33.2075466685       10.8523676751
  H        23.1503684326        1.9568958215        8.0048888118
  H        25.8130378823       19.6356998245        3.8971454451
  H        23.6391519525       19.6817016721        2.6825171894
  H        22.3659225534       16.1826605777        4.8349422977
  H        24.5488924173       16.1457997471        6.0473185929
  H        23.7250086682       17.6488372626        1.2392136423
  H        35.1109234651       15.4968187674        3.9473222542
  H        37.2306906737       15.4604537039        2.6334536149
  H        38.7060452760       18.7781193204        4.9410475754
  H        36.5770656442       18.8069766838        6.2478791342
  H        37.2263675972       17.4391873678        1.2426072495
  H        20.3611392391       17.9493612461        4.6675481947
  H        35.1986857423       15.4901936630       12.0987325941
  H        37.3318214003       15.4475653981       13.3980133395
  H        38.7563104320       18.8279029962       11.1516056980
  H        36.6207775986       18.8508202265        9.8486740610
  H        37.2511362486       17.4478222114       14.7905398556
  H        35.1629360171       26.6877611336       11.4040230224
  H        28.5104071496       21.0877152202        8.0039055709
  H        25.7593527307       19.6216518569       12.1698609283
  H        23.5739297956       19.6774022145       13.3820707523
  H        22.2917220747       16.1893629752       11.2167303064
  H        24.4758934875       16.1570129136        9.9976546123
  H        23.7017461796       17.6434845945       14.7903304959
  H        28.9935594326       21.7247861161        9.7656312907
  H        29.1143027872       21.7627140645        6.6075305472
  H        32.0820643032       18.5673332636       10.9965346645
  H        27.4022080347       19.0792553342        8.0811160899
  H        14.8489012754       19.6472642846       12.1401992179
  H        17.0118160396       19.6922001788       13.3836235816
  H        18.3003219178       16.1840873539       11.2546834787
  H        16.1330338728       16.1551369132       10.0113350470
  H        16.9213670879       17.6908422334       14.8473687747
  H        46.1019860691       15.4680377865       12.0953057863
  H        43.9836276164       15.4320477920       13.4137964117
  H        42.5619686522       18.8361633324       11.2007233655
  H        44.6814243096       18.8487990860        9.8743752061
  H        44.0296719726       17.3646976178       14.8604282590
  H        20.2875477543       17.9255519677       11.4193518518
  H        46.0394094329       15.3996573875        4.0211416991
  H        43.9056804826       15.3462602065        2.7316715220
  H        42.5004185393       18.7675187418        4.9275137783
  H        44.6419250139       18.8097565611        6.2152005022
  H        44.0044053782       17.3328422876        1.3096535511
  H        46.1984771210       26.6822208779        4.6232725243
  H        52.7407311611       21.0624207820        8.1946282857
  H        14.8893278370       19.6743205751        3.9000724644
  H        17.0910804239       19.7402222678        2.7217027313
  H        18.3260425433       16.2073957533        4.8409084621
  H        16.1268141663       16.1664496672        6.0295595423
  H        16.9437599044       17.7005601945        1.2953662592
  H        52.3211593444       21.6727602886        6.2946398730
  H        52.0120712421       21.7011728973        9.4954988742
  H        49.0650968535       18.6070394353        5.2049655004
  H        13.2469652288       19.0167037189        7.9769837504
  H        29.9358438973       12.4664271230       12.2458675467
  H        28.8669415139       10.5347203519       13.4161226600
  H        25.2469292739       11.1917585978       11.1888638608
  H        26.3359440506       13.1095195566       10.0086834208
  H        27.1499870214       11.6805591163       14.7860482363
  H        31.0043880316       22.7667228781       12.0270427273
  H        32.0120085482       24.6448251221       13.3245233482
  H        35.6887012673       24.1627986465       11.1450776150
  H        34.6608605278       22.2939406788        9.8399163273
  H        33.6786862072       23.5789910622       14.7522662347
  H        25.7010689290        8.5937499253       11.4017496416
  H        30.9096620207       22.6617426864        3.8993361357
  H        31.9279627935       24.5247152433        2.5959782001
  H        35.5346061931       24.1660476273        4.9141965837
  H        34.5058078740       22.2993086003        6.2113928139
  H        33.6340334713       23.5612285007        1.2016721070
  H        40.5784804718       17.0882079424        4.6701271442
  H        32.5254561789       14.1284725229        8.3559105067
  H        29.8769791782       12.5192110706        3.9108585209
  H        28.8412324846       10.6193799875        2.6725348536
  H        25.1704066317       11.2185184549        4.8315680289
  H        26.2230929772       13.1137744472        6.0764135785
  H        27.1390341404       11.6997157550        1.2348594598
  H        33.2876137339       14.1632145814        6.4299619766
  H        33.4072276237       14.4401324715        9.6723080977
  H        32.1274576788       18.5193075316        5.1060975642
  H        30.2282387467       14.1859453389        8.0724332319
  H        16.1193138848        2.9628329605       12.1309274086
  H        14.9540006703        4.8197974542       13.3237215970
  H        17.3639038156        7.6857194294       11.2084630075
  H        18.5127236926        5.8180498073       10.0085126651
  H        16.7536739156        5.7395914295       14.7715808600
  H        44.8284601163       32.1399909318       11.9765731188
  H        45.9375918158       30.3409561389       13.3060188971
  H        43.6811117819       27.3781070092       11.1531612972
  H        42.5984233245       29.1899858850        9.8107226394
  H        44.2300229472       29.4365009448       14.7688116751
  H        14.8498603880        8.5454052707       11.3633563062
  H        44.8999629389       32.2338602860        3.9321067361
  H        46.0247421795       30.4127655379        2.6524534456
  H        43.7625025974       27.4839463874        4.8446530403
  H        42.6447145151       29.3175369582        6.1236766358
  H        44.2681681281       29.4703192042        1.2180616926
  H        35.0224265589       26.6158281539        4.6477044998
  H        36.6047947368       35.1336194801        8.1809239280
  H        16.1444393149        3.0125430671        3.9029863927
  H        14.9747845610        4.8558161024        2.6871874809
  H        17.3936348231        7.7470941655        4.7570365708
  H        18.5407376359        5.8930064760        5.9848161375
  H        16.7647365593        5.7555477437        1.2193345833
  H        36.2788583178       34.4814587493        6.2735751002
  H        36.3813536293       34.2088408716        9.5002201926
  H        40.5775450321       33.2001597394        5.1547248089
  H        17.4705878142        1.9459673904        7.9738792471
  H        29.1461863463       19.3360913366       12.6056652778
  H        29.9792565893       19.5990805018        3.1502451254
  H        31.9083281707       15.9280619479        3.1319667523
  H        31.1989194747       15.5335145691       12.5360882043
  H        28.1007736927       18.1668973703       14.6383041657
  H        29.4815539358       15.2948340021       14.5716995889
  H        31.4853751478       20.1913904720        1.8662255182
  H        33.1695992502       16.8110148797        1.7228581731
  H        28.7656666417       16.7091943428        1.1495226975
  H        32.3983530971       18.3815827025       14.9675048910
  H        18.8537267756        0.8693274522       12.3350280346
  H        40.5277665192       35.2293042142        3.9524385008
  H        42.3219035630       34.4167455775        3.5922870504
  H        22.0882021660        0.6920268887       12.3511433355
  H        11.5971663019       18.7130383618       12.3820182597
  H        52.2647356404       18.4306495718        3.6776368864
  H        49.2545928014       16.4785839386        3.5854586205
  H        10.1503282795       15.7982600822       12.2926240417
  H        50.8495632895       17.6922949154        3.9545656496
  H        10.0458506649       17.3944483889       12.0520316471
  H        20.2145944461        0.0021500121       12.0421188147
  H        39.1832838415       36.1243590740        3.6866910653
 Ni        31.0276892347       17.8159133461        2.9948131796
 Ni        31.1155599407       16.3956879498        0.1646819158
 Ni        29.9681104489       18.8697442229        0.1674530509
 Ni        30.3085410646       17.5027954718       13.3259139192
  O        10.6498017076       14.3651402716        5.4857156881
  O        12.6131534493       14.6575095242        6.5838296402
  O        49.1480472350       16.8460076731        7.9896503501
  O        50.3502028649       20.9361916622        5.6482572863
  O        48.3485556229       20.5934383888        6.6659702364
  O        11.0512319506       17.0541252723        6.5004099011
  O        50.3210194649       20.8817432565       10.4067600713
  O        48.3467405717       20.5868809407        9.3270609710
  O        49.5435528287       18.2485362786       10.0683010645
  O        12.3587657303       18.6245032744        7.9997147874
  O        48.6930887683       14.1486238318        6.7511479852
  O         8.2097190117       14.2102408641        9.3225645729
  O        10.7353504102       14.5066664967       10.6643898116
  O        12.5718326350       14.5828141001        9.3284920378
  O        22.8450276298        2.0442719369        5.4869788226
  O        21.6047738284        3.5922671644        6.5902893651
  O        42.0576502494       34.1366931355        7.9788393390
  O        37.9812938093       33.1362848427        5.5724650245
  O        39.2174988305       31.5753232696        6.6659850410
  O        20.3081709876        1.0390504986        6.5016922028
  O        38.0251276024       33.1865788690       10.4150326738
  O        39.2187371275       31.5835855897        9.3269180652
  O        40.6522000924       33.7689871827       10.0602273472
  O        18.2556180599        1.3752925529        7.9968290710
  O        44.6222057250       35.1005088550        6.7586665323
  O        24.2053784171        0.0000139010        9.3208518983
  O        22.7530233598        2.0576853729       10.5837073617
  O        21.6239567549        3.5957080923        9.3417452023
  O        27.5394328625       18.6797146774        5.4182774455
  O        26.7656905366       16.9338526730        6.6553049600
  O        30.6726246700       19.4017849903        8.0735439708
  O        33.5437440857       16.3307419185        5.6555205080
  O        34.2725890864       18.1810586748        6.7455809648
  O        29.5809786713       17.0661390663        6.5766849803
  O        33.6226420079       16.3309718991       10.4094681664
  O        34.3053823539       18.2491868590        9.4055977951
  O        31.6559777426       18.3131330258       10.1599524718
  O        30.3265820598       15.1523698377        8.0886076305
  O        28.5497561554       21.0304036643        6.9125213405
  O        28.5143065367       20.9576823969        9.4079749920
  O        27.4553097650       18.6785719593       10.6594195470
  O        26.6951887927       16.9289293005        9.4113413140
  O        13.1487530994       18.6930651387       10.5875837429
  O        13.9194030476       16.9161521917        9.4049404099
  O        50.5956330167       19.3502200361        8.0203595971
  O        47.6840217421       16.3269034294       10.4171150990
  O        46.9525466004       18.1758904093        9.3241322968
  O        11.0693764158       17.0156700665        9.4898388420
  O        47.6753881454       16.3355136041        5.6530658971
  O        46.9275636071       18.2357359952        6.6649412034
  O        49.5683324015       18.3177919003        5.9821596696
  O        10.3184114672       15.1003418105        7.9970472138
  O        52.6707211881       21.0279458372        9.2418427540
  O        12.1468317625       20.8911236879        6.6730949260
  O        13.1089493643       18.6134839727        5.3252887380
  O        13.9572392171       16.9867457681        6.6655617501
  O        29.9886475317       14.4378613419       10.7294406003
  O        28.0884377593       14.6550553888        9.4916055098
  O        32.1418347468       16.8638425245        8.0863875784
  O        30.9670819828       20.9558991251       10.4066095756
  O        32.9478731418       20.6028548254        9.3397458145
  O        29.5681176278       17.0773241068        9.5758749647
  O        30.8523919603       20.8834799295        5.6575380906
  O        32.8703985560       20.5835475608        6.6670742704
  O        31.6603771608       18.2470384262        5.9228796717
  O        28.2868899841       18.6781851181        8.0765375559
  O        32.4972666645       14.2099650746        9.4008151130
  O        32.4034327884       14.2123836372        6.8298090849
  O        29.8690652726       14.5088698261        5.4137014763
  O        28.0413544840       14.5868774486        6.7524379216
  O        17.8890900073        1.9664806179       10.6628771103
  O        18.9561151704        3.5270465430        9.4080012767
  O        39.1686579325       34.1385681245        7.9970494406
  O        43.2802436431       33.0589051778       10.3316173616
  O        42.0345547704       31.5064242728        9.2415404886
  O        20.3173572354        1.0361959697        9.4805837984
  O        43.2760584636       33.1824765179        5.5749393935
  O        42.0052793766       31.5840519982        6.5830311644
  O        40.5788840606       33.7745043681        5.9356571273
  O        22.3669477710        1.3841947855        7.9978909805
  O        36.6726168010       35.0996503436        9.2333993783
  O        16.4453724906        0.0639371543        6.6681515323
  O        17.9362938928        2.0432233899        5.3263388884
  O        18.9188854381        3.5930403269        6.6659484388
  O        29.6097153262       19.0554262959        4.0001742171
  O        29.8253002083       18.9748298775       11.9969744222
  O        31.3072646338       15.9728173940        4.0040898520
  O        31.3472913832       16.3427171882       12.0048981084
  O        32.2389966263       16.5609015265        1.8334294216
  O        29.6468029509       17.0820068913        1.3286377097
  O        30.3319612059       15.7534028622       14.4912605526
  O        31.4911416273       18.0334336579       14.9930708704
  O        30.7492311091       19.5615877472        1.9128885044
  O        28.9530160551       18.6089819420       14.5037177250
  O        39.4567553082       35.2437735424        4.0019572446
  O        19.1415648713        0.0047292660       11.9906729446
  O        41.9697970276       35.1727696585        4.0873267930
  O        21.6915380007       -0.0693770559       11.8958177599
  O        51.3649965818       18.6142500985        4.0055317855
  O        10.7511909915       18.7473478024       11.9048840996
  O        50.0796615111       16.4128965772        4.0916187705
  O         9.5244412213       16.4831099320       11.9912756846
 Zr         9.2946825260       16.0531660109        6.1822202298
 Zr        49.8343788279       16.0068810277        9.7465806811
 Zr        22.0724394151        0.0280444911        6.1895913654
 Zr        42.4600872783       35.1516728132        9.8004008219
 Zr        29.6207599622       19.1188926592        6.3602459609
 Zr        29.5727356580       19.1744963474        9.9286570603
 Zr        11.0363989757       19.0521448838        9.8272996999
 Zr        11.0421801077       19.1550244783        6.2516160261
 Zr        31.3407530418       16.1043299581        9.9350020087
 Zr        31.4308070946       16.0210572512        6.3691987127
 Zr        18.6001000825       -0.0035971877        9.7638369513
 Zr        18.5056867320       -0.0098904351        6.2133619964
 Zr        12.2997175020       16.3237405440        7.9902419559
 Zr        48.6138592764       18.8326375114        8.0100154360
 Zr        20.3135688230        2.4708942791        7.9906556454
 Zr        40.6413458392       32.6846674245        7.9782297106
 Zr        28.3494353694       16.3460255969        8.0956532162
 Zr        32.6502661225       18.8536296463        8.0739692061
  H        30.5562712213       15.3395153975        3.9186908427
  H        28.6912171234       18.7653148387        3.8134943898
