     574
 i =      137, E =     -4778.8645402749
  C        11.8584926969       14.0535624475        5.7415640059
  C        12.4559365491       12.8904580177        5.0233623217
  C        11.7043713711       12.1718731816        4.0813458657
  C        12.2806867234       11.1096280724        3.3889810723
  C        13.6210916967       10.7394219381        3.6170586652
  C        14.3540806123       11.4425697225        4.5909836015
  C        13.7812332018       12.5075557999        5.2825114553
  C        14.2606898335        9.6488125064        2.8436318085
  C        14.2561048393        9.6567757097        1.4219209135
  C        13.7428714509       10.7588461987        0.6679785279
  C        49.1266746539       21.2331808583        5.8797121840
  C        48.5499457977       22.4010638900        5.1526005993
  C        49.3000530764       23.0685607801        4.1717742532
  C        48.7331196959       24.1077049823        3.4385945424
  C        47.4024734022       24.5091195236        3.6670120657
  C        46.6713903619       23.8599997994        4.6802675736
  C        47.2338416234       22.8150822727        5.4096004515
  C        46.7722915799       25.5868795644        2.8697649337
  C        46.7613492696       25.5573257145        1.4480013169
  C        47.2612227729       24.4422057049        0.7045077792
  C        14.8601899750        8.5705146473        0.7086492719
  C        14.8914685608        8.5968370240        3.5202657583
  C        49.1129668433       21.2034398270       10.1453638275
  C        48.5275240157       22.3646589865       10.8725958088
  C        49.2669547234       23.0258786660       11.8650343600
  C        48.6905341140       24.0603484315       12.5965303769
  C        47.3599029335       24.4566314545       12.3586774072
  C        46.6392178200       23.8111311701       11.3357324982
  C        47.2128502163       22.7752816088       10.6039260604
  C        46.7214908775       25.5316343256       13.1496999945
  C        46.7334235617       25.5281045163       14.5713963733
  C        47.2488980586       24.4288904364       15.3277468511
  C        40.6179720252       17.1270483863       15.3055950419
  C        40.6276137695       17.1086184351       12.4964171208
  C        11.8827762278       14.0864715589       10.2854245583
  C        12.4720317256       12.9104985107       10.9895407250
  C        11.7145979105       12.1775813337       11.9159387184
  C        12.2811282295       11.0951015013       12.5843887366
  C        13.6198179970       10.7210505948       12.3523180528
  C        14.3576239033       11.4362108767       11.3910688092
  C        13.7922475795       12.5173866435       10.7183433066
  C        14.2534852490        9.6243719533       13.1227887654
  C        14.2523147631        9.6444169813       14.5446369431
  C        13.7423276183       10.7533066646       15.2917221126
  C        22.5136002641        3.2451692449        5.7533153457
  C        23.2313930985        4.3498915650        5.0550011856
  C        24.2286949291        4.0682695132        4.1094090507
  C        24.8586698340        5.1064609428        3.4276687022
  C        24.5075483573        6.4492299863        3.6710215157
  C        23.5388348972        6.7223481457        4.6541027268
  C        22.9042017803        5.6859641310        5.3343140980
  C        25.1134439231        7.5552706084        2.8936451857
  C        25.0793668279        7.5494835383        1.4720229118
  C        24.3764816909        6.5492294388        0.7279218346
  C        38.2987232350       31.9268020407        5.8512401758
  C        37.5596716088       30.8364125681        5.1491228608
  C        36.5944225437       31.1403105300        4.1765250201
  C        35.9674379769       30.1204532072        3.4653166297
  C        36.2901799173       28.7697519514        3.7028826443
  C        37.2246143917       28.4733175887        4.7133229901
  C        37.8554651770       29.4920912632        5.4239545926
  C        35.6844936665       27.6792146807        2.9030125654
  C        35.7256993008       27.6943210129        1.4810731461
  C        36.4357185589       28.6974087199        0.7483933866
  C        25.6967121954        8.6214659993        0.7500298556
  C        25.7151112779        8.6290341282        3.5618756712
  C        38.3305723016       31.9608797991       10.1599391985
  C        37.6143941643       30.8872940370       10.9087320541
  C        36.6826108016       31.1957196924       11.9119047225
  C        36.0740954748       30.1777889590       12.6443456387
  C        36.3823618249       28.8247278187       12.3978825987
  C        37.2947141942       28.5262188598       11.3670783691
  C        37.9051033161       29.5406313545       10.6358719869
  C        35.7700748512       27.7248667159       13.1795864806
  C        35.7690109882       27.7180530862       14.6021611625
  C        36.4551947660       28.7094757301       15.3716483513
  C        46.1355321209       26.6208018799       15.2815273229
  C        46.0874242956       26.5799064724       12.4736287710
  C        22.4602561377        3.2553657328       10.2575452896
  C        23.1532280981        4.3637684928       10.9810396126
  C        24.1550292055        4.0774386019       11.9220105501
  C        24.7822662121        5.1074702174       12.6185820044
  C        24.4276338171        6.4531005333       12.3964027037
  C        23.4487835064        6.7326628079       11.4240207031
  C        22.8168644173        5.7029309150       10.7279962687
  C        25.0579381129        7.5515992551       13.1698207347
  C        25.0515980576        7.5466159670       14.5926392179
  C        24.3613419059        6.5489257729       15.3509881292
  C        26.6334155764       17.8202603871        5.7458637448
  C        25.3284729671       17.8693968757        5.0223229696
  C        25.0523776953       18.8875870631        4.0953345172
  C        23.8334881724       18.9150204745        3.4207222506
  C        22.8536040061       17.9279328717        3.6506257611
  C        23.1257643685       16.9313358012        4.6069099578
  C        24.3457780847       16.8990784459        5.2804435037
  C        21.5769904161       17.9221177047        2.8919500466
  C        21.5773939635       17.9147046810        1.4695247397
  C        22.7833871433       17.8013528504        0.7081107834
  C        34.4183969856       17.2314600584        5.8761474241
  C        35.7123522965       17.1822896723        5.1405930657
  C        35.9151141099       16.2318259156        4.1275784218
  C        37.1023938537       16.2195564169        3.4024476335
  C        38.1192844250       17.1576773945        3.6672926889
  C        37.9196470975       18.0872302075        4.7060601066
  C        36.7303348493       18.1041658060        5.4305637254
  C        39.3747882687       17.1676752034        2.8834655549
  C        39.3670762550       17.1802741689        1.4612898990
  C        38.1602975868       17.3171591623        0.7055719849
  C        20.3305204821       17.9354431094        0.7621723962
  C        20.3534022771       17.9192876946        3.5762746013
  C        34.4377268886       17.2352545933       10.1902640305
  C        35.7364444734       17.1377524215       10.9112695735
  C        35.9227031440       16.1948235186       11.9330199463
  C        37.1145054286       16.1691335888       12.6528364298
  C        38.1471761133       17.0857779493       12.3730173262
  C        37.9651573849       18.0005203006       11.3182732303
  C        36.7738368932       18.0316412164       10.6006650317
  C        39.3970767061       17.1105275547       13.1643361315
  C        39.3783605284       17.1509634125       14.5856536763
  C        38.1650990120       17.3010954493       15.3288939891
  C        35.1347504347       26.6378224588       15.3016731813
  C        35.1845494945       26.6537714071       12.4921076925
  C        26.5694668819       17.8277858344       10.3217977736
  C        25.2534585177       17.8775858045       11.0238766867
  C        24.9880747878       18.8891200733       11.9593862347
  C        23.7703952647       18.9177671370       12.6332205628
  C        22.7891761025       17.9347703569       12.3951187585
  C        23.0484122943       16.9484938254       11.4262195430
  C        24.2668339351       16.9177845875       10.7504743776
  C        21.5264203101       17.9179673703       13.1697585444
  C        21.5511626734       17.9103493305       14.5912359524
  C        22.7706635686       17.7991012889       15.3317651461
  C        14.0456417111       17.8294676259       10.2879700810
  C        15.3501539892       17.8883694785       11.0127327996
  C        15.6061557384       18.8943707547       11.9573616686
  C        16.8151644766       18.9175912948       12.6498981348
  C        17.8015339808       17.9376363557       12.4191791831
  C        17.5502739074       16.9555645677       11.4425779238
  C        16.3406541955       16.9278206317       10.7517345559
  C        19.0706162822       17.9229706025       13.1874502559
  C        19.0698444543       17.9200937733       14.6097742583
  C        17.8631435720       17.8202114231       15.3714469613
  C        46.8017055239       17.2158618967       10.1565520845
  C        45.5075802534       17.1458357032       10.8951743140
  C        45.3029377921       16.1670523376       11.8803048322
  C        44.1181936930       16.1415389835       12.6116671215
  C        43.1067888300       17.0945205101       12.3807139408
  C        43.3076131690       18.0507763963       11.3665981441
  C        44.4932750971       18.0805704571       10.6363099221
  C        41.8538451528       17.1058720965       13.1713803340
  C        41.8631148405       17.1232498327       14.5936072700
  C        43.0739847285       17.2197066818       15.3490662894
  C        20.3168966153       17.9317548350       15.3171699671
  C        20.2940920650       17.9041127328       12.5042330564
  C        46.7841256992       17.2336988482        5.8853560669
  C        45.4825320514       17.1352425100        5.1647126137
  C        45.2598999520       16.1401413019        4.2005587372
  C        44.0725592359       16.1204959946        3.4722610616
  C        43.0770116141       17.0932934961        3.6894014825
  C        43.2907187646       18.0589457035        4.6910812652
  C        44.4786604079       18.0846946570        5.4149560099
  C        41.8293897834       17.1218619522        2.8934185565
  C        41.8506967659       17.1304583713        1.4717867850
  C        43.0683291385       17.2195108716        0.7262728742
  C        46.1533840511       26.6372532227        0.7262814038
  C        46.1623445004       26.6559755652        3.5359266379
  C        14.0450460549       17.8303166119        5.7077163064
  C        15.3660403291       17.9012021143        5.0150664049
  C        15.6442446774       18.9197030391        4.0913366215
  C        16.8736084852       18.9546831149        3.4366741132
  C        17.8526231292       17.9700363464        3.6792947587
  C        17.5807830100       16.9792470059        4.6402312697
  C        16.3536743659       16.9442191002        5.2988929481
  C        19.1202804194       17.9452252471        2.9101463324
  C        19.0959773348       17.9303937466        1.4883098679
  C        17.8756889552       17.8249895931        0.7477236952
  C        28.8103600140       14.0872989410       10.3898138493
  C        28.1970652021       12.9136161907       11.0736613279
  C        28.9152359728       12.1774208911       12.0275642957
  C        28.3132528062       11.1041419379       12.6791472648
  C        26.9792915096       10.7430065731       12.4010967522
  C        26.2837442691       11.4585563854       11.4099109472
  C        26.8831463098       12.5322934314       10.7567611021
  C        26.3076343331        9.6655507001       13.1631961863
  C        26.2924625709        9.6950381181       14.5841418845
  C        26.7877908397       10.8128838692       15.3272230563
  C        32.1804066546       21.2359188416       10.1463553404
  C        32.7766152363       22.4021224969       10.8641474205
  C        32.0303807750       23.0806068898       11.8402524160
  C        32.6024265212       24.1193967904       12.5684088611
  C        33.9371083224       24.5086693892       12.3428957745
  C        34.6660317023       23.8488825929       11.3352826867
  C        34.0963319706       22.8045411006       10.6087704209
  C        34.5658411794       25.5826927173       13.1467192664
  C        34.5505031365       25.5530436220       14.5687239044
  C        34.0421265614       24.4350607084       15.3027877304
  C        25.6872322410        8.6161931938       15.3051525573
  C        25.6726756602        8.6127896749       12.4916398145
  C        32.0840320566       21.1956138022        5.8758173437
  C        32.6561435750       22.3521232182        5.1260754205
  C        31.9261009643       23.0016427184        4.1182000612
  C        32.5033908448       24.0387727012        3.3871662037
  C        33.8238391017       24.4589331605        3.6455404919
  C        34.5347468709       23.8222999969        4.6811823868
  C        33.9638858007       22.7804131157        5.4062954717
  C        34.4665099589       25.5450213633        2.8682089352
  C        34.4982541910       25.5343564622        1.4461602749
  C        34.0163934593       24.4269222039        0.6794261816
  C        40.6117035734       17.1367952056        0.7504908599
  C        40.5996346216       17.1562498477        3.5609687910
  C        28.7271682828       14.0994773013        5.7845503051
  C        28.1264009000       12.9441386044        5.0568042308
  C        28.8500156754       12.2782336792        4.0554906419
  C        28.2763456576       11.2110749340        3.3685630367
  C        26.9616152250       10.7877499552        3.6516948806
  C        26.2574702620       11.4421334323        4.6803711822
  C        26.8308014556       12.5056454035        5.3737980731
  C        26.3201014741        9.6951716968        2.8825568592
  C        26.2991897079        9.7113564880        1.4604420438
  C        26.7872125355       10.8224197116        0.7030442954
  C        18.1355053578        3.1808935187       10.3171442312
  C        17.4061741294        4.2781410976       11.0158065431
  C        16.3904126254        3.9997729005       11.9432697863
  C        15.7426662473        5.0397398018       12.6067825606
  C        16.0945576236        6.3834642896       12.3671149165
  C        17.0839898079        6.6529942150       11.4034066175
  C        17.7331052019        5.6156655473       10.7383458909
  C        15.4701709466        7.4911524325       13.1301486823
  C        15.4855265873        7.4905402883       14.5518625029
  C        16.1871734619        6.4969966546       15.3050425550
  C        42.9458233581       31.8594606896       10.0728610992
  C        43.6460939597       30.7717765252       10.8168030952
  C        44.5917164118       31.0930590328       11.8028148657
  C        45.1973896962       30.0874818184       12.5504554651
  C        44.8707944772       28.7344292987       12.3357282310
  C        43.9448863926       28.4201239480       11.3225713672
  C        43.3361245346       29.4252915278       10.5745214026
  C        45.4884039898       27.6551369917       13.1389093589
  C        45.4928000461       27.6809060455       14.5606001767
  C        44.8058637993       28.6890334621       15.3072484670
  C        14.8564345082        8.5629760396       15.2642075676
  C        14.8747526534        8.5628306640       12.4515402600
  C        42.9464761626       31.9615347814        5.8089571690
  C        43.6917343193       30.8854309809        5.0955682030
  C        44.6563454462       31.1913530638        4.1232703088
  C        45.2779015806       30.1717719030        3.4055768361
  C        44.9541187821       28.8214372197        3.6431713425
  C        44.0206491831       28.5237575653        4.6539689418
  C        43.3923574389       29.5405141545        5.3661338477
  C        45.5631521928       27.7240534628        2.8578988168
  C        45.5334873487       27.7174352911        1.4365961467
  C        44.8272270990       28.7077071773        0.6836401503
  C        35.1105102880       26.6272678693        0.7471191334
  C        35.0717653722       26.6041256853        3.5576276698
  C        18.1485870777        3.2468466729        5.7065811083
  C        17.4299333883        4.3436860412        4.9972998944
  C        16.4146922175        4.0524215905        4.0737638689
  C        15.7663457759        5.0830586639        3.3984037466
  C        16.1210104843        6.4282963509        3.6211044435
  C        17.1124414245        6.7116526152        4.5783122177
  C        17.7601809501        5.6827481715        5.2580378887
  C        15.4904707106        7.5240025743        2.8486768511
  C        15.4964693830        7.5074417042        1.4275380021
  C        16.1933652760        6.5058164875        0.6808584474
  H        10.6723539920       12.4662665729        3.9040724275
  H        11.6944109988       10.5513947659        2.6622373917
  H        15.3909261776       11.1675324564        4.7731099714
  H        14.3504963481       13.0703748957        6.0184120029
  H        13.3756525241       11.6308940627        1.2012685666
  H        50.3228322236       22.7486788466        3.9871799421
  H        49.3196218619       24.6231164053        2.6811314023
  H        45.6417633507       24.1604703940        4.8631747714
  H        46.6626842929       22.2896196400        6.1714351845
  H        47.6296187139       23.5757631793        1.2461863641
  H        14.8716640620        8.5879821682        4.6085700110
  H        50.2871752269       22.7034077370       12.0596303026
  H        49.2690045762       24.5761784799       13.3597206058
  H        45.6095578414       24.1077943700       11.1471527625
  H        46.6517488072       22.2525850510        9.8329270404
  H        47.6074914693       23.5516988830       14.7968388752
  H        40.6311257121       17.0568283425       11.4092944594
  H        48.6867430645       14.0950362731        7.7999408037
  H        10.6812120708       12.4668553124       12.0935387848
  H        11.6893320813       10.5249066381       13.2972446192
  H        15.3929044549       11.1579743619       11.2048153746
  H        14.3644326753       13.0864361881        9.9894450501
  H        13.3753150417       11.6218399471       14.7530829760
  H        47.9300855277       14.2180121951        9.7109087379
  H        47.7797110194       14.3727037143        6.4948002555
  H        49.0818228122       18.5516529550       10.8667751978
  H        10.4154361722       14.1343831371        7.9987477916
  H        24.4877512256        3.0292053373        3.9185438773
  H        25.6316556107        4.8868793328        2.6943617421
  H        23.2599555864        7.7558491072        4.8488478638
  H        22.1341006715        5.8884129960        6.0746984111
  H        23.8185514885        5.7911789005        1.2698435447
  H        36.3601964130       32.1837714615        3.9792221687
  H        35.2201517637       30.3618326781        2.7125390024
  H        37.4826764179       27.4339272409        4.9057040580
  H        38.6024669407       29.2688405294        6.1821091126
  H        36.9960513897       29.4479229137        1.2982602073
  H        25.7582118131        8.6090469476        4.6493675381
  H        36.4546426132       32.2397686721       12.1145572795
  H        35.3450760331       30.4240300022       13.4132227098
  H        37.5466195554       27.4862700809       11.1700134319
  H        38.6304237216       29.3136655922        9.8582932753
  H        37.0314794892       29.4689822379       14.8510147533
  H        46.1085853125       26.5871321180       11.3855867636
  H        44.6683566228       35.1161828055        7.8139394866
  H        24.4329610959        3.0392023810       12.0887275236
  H        25.5631532635        4.8789014228       13.3407512657
  H        23.1638232227        7.7672327977       11.2438978971
  H        22.0453355453        5.9155099866        9.9915698006
  H        23.7909967279        5.7913206627       14.8213727527
  H        44.9541016273       34.3905985008        9.6952488608
  H        44.9020671426       34.2069230841        6.4905495815
  H        40.6663401879       33.2091244393       10.8531533604
  H        23.1504881819        1.9577972523        8.0052717999
  H        25.7984059562       19.6599502285        3.9227551057
  H        23.6243050263       19.7109555152        2.7091463445
  H        22.3812632984       16.1597759432        4.7924775615
  H        24.5649299467       16.1176358227        6.0044487901
  H        23.7253799093       17.6839465964        1.2357480125
  H        35.1285522084       15.5124684195        3.9138712186
  H        37.2561056594       15.4753154076        2.6243156954
  H        38.6961192536       18.8200451650        4.9156494509
  H        36.5611158243       18.8367466977        6.2162859802
  H        37.2229689698       17.4646773178        1.2344010584
  H        20.3610840923       17.9490380836        4.6644815339
  H        35.1153204273       15.5049191392       12.1672649963
  H        37.2548543426       15.4361632196       13.4440488465
  H        38.7546337059       18.7154477594       11.0962373732
  H        36.6139456026       18.7586469777        9.8082842695
  H        37.2312205215       17.4363294269       14.7904497925
  H        35.1635702943       26.6807809403       11.4042757090
  H        28.5060236523       21.0859879909        8.0006285928
  H        25.7495369320       19.6441343420       12.1412300095
  H        23.5644566277       19.7059097314       13.3542765520
  H        22.2989293962       16.1827205546       11.2369692826
  H        24.4835034985       16.1437034577       10.0181753799
  H        23.7023902572       17.6802206878       14.7867386217
  H        29.0221073913       21.7140364118        9.7513563593
  H        29.1219016981       21.7610445586        6.6141928482
  H        32.0711106040       18.5410212080       11.0050667089
  H        27.3991782825       19.0779291147        8.0911162332
  H        14.8471334071       19.6533207304       12.1334126437
  H        17.0106046757       19.7037411733       13.3760587770
  H        18.3018357527       16.1910942349       11.2563299806
  H        16.1342393613       16.1566969451       10.0133347540
  H        16.9203751641       17.7064294222       14.8442154563
  H        46.0899159542       15.4401532366       12.0670742494
  H        43.9621566994       15.3755039763       13.3680992477
  H        42.5349221307       18.7943315341       11.1824301802
  H        44.6634810929       18.8345485419        9.8712866743
  H        44.0152381010       17.3236110967       14.8169298647
  H        20.2869088940       17.9320314787       11.4160727436
  H        46.0325634417       15.3953004297        4.0238338490
  H        43.9034513071       15.3469001541        2.7263696939
  H        42.5283419521       18.8152041565        4.8661544066
  H        44.6630422116       18.8493101767        6.1655674244
  H        44.0052675120       17.3219837671        1.2661559078
  H        46.1990854837       26.6824222618        4.6233775889
  H        52.7409356807       21.0625358821        8.1946783762
  H        14.8873316051       19.6780106591        3.9031712930
  H        17.0881606639       19.7480202084        2.7238416111
  H        18.3270499302       16.2117358833        4.8350453071
  H        16.1289872418       16.1668668310        6.0251681736
  H        16.9424352512       17.7150326069        1.2918003158
  H        52.3218129644       21.6729875809        6.2944400522
  H        52.0127992269       21.7018073444        9.4955817707
  H        49.0673021591       18.6076590063        5.2042887233
  H        13.2471250995       19.0165390758        7.9768213139
  H        29.9418269177       12.4621040481       12.2467542779
  H        28.8714556749       10.5334872377       13.4181873277
  H        25.2532191076       11.1894350582       11.1874671111
  H        26.3427506952       13.1068217373       10.0085524542
  H        27.1429518652       11.6841306840       14.7851507095
  H        31.0060530983       22.7671237334       12.0260441671
  H        32.0178466131       24.6428758832       13.3217481274
  H        35.6994642641       24.1380285542       11.1553168721
  H        34.6667121829       22.2693682583        9.8530783773
  H        33.6974670382       23.5630072065       14.7542021005
  H        25.7034402709        8.5907829101       11.4037141447
  H        30.9074915367       22.6788871758        3.9142625346
  H        31.9291937376       24.5422712277        2.6123912848
  H        35.5568095282       24.1329669759        4.8878688788
  H        34.5208564076       22.2687618362        6.1875594819
  H        33.6523004384       23.5478201489        1.2033449140
  H        40.5945698210       17.1181424870        4.6486634496
  H        32.5047424266       14.1551921066        8.2657264302
  H        29.8614330989       12.6106432159        3.8320378968
  H        28.8472134902       10.6892927493        2.6036314660
  H        25.2406816467       11.1281951644        4.9073041371
  H        26.2835908572       13.0240611785        6.1575401782
  H        27.1401472040       11.7021905067        1.2327519193
  H        33.2904557381       14.2141117664        6.3738837616
  H        33.4095943799       14.4087380922        9.5849962991
  H        32.0466775947       18.5034283796        5.0825493773
  H        30.2017405353       14.1907284284        8.0747172668
  H        16.1183357259        2.9632642597       12.1296228826
  H        14.9531663597        4.8203418288       13.3223836500
  H        17.3664158158        7.6858736198       11.2103153711
  H        18.5151538445        5.8183128498       10.0105085433
  H        16.7538066008        5.7397127550       14.7715411279
  H        44.8281614200       32.1401142759       11.9769352615
  H        45.9373555433       30.3412038648       13.3063127999
  H        43.6820613168       27.3780724611       11.1525357785
  H        42.5995130353       29.1899286112        9.8098607454
  H        44.2305141894       29.4368211460       14.7689702526
  H        14.8508854645        8.5459566258       11.3633237240
  H        44.8999164795       32.2340269773        3.9318190042
  H        46.0248157804       30.4130178111        2.6523532009
  H        43.7636832901       27.4840254013        4.8455245487
  H        42.6458885007       29.3176560438        6.1245899919
  H        44.2687818774       29.4706406436        1.2182196377
  H        35.0208377662       26.6163680351        4.6447999582
  H        36.6052718479       35.1338774978        8.1807875995
  H        16.1435943293        3.0128452391        3.9040603798
  H        14.9739966679        4.8562080774        2.6883462133
  H        17.3959710094        7.7471176768        4.7551669089
  H        18.5431455747        5.8931867980        5.9827107300
  H        16.7648368055        5.7556164891        1.2193149650
  H        36.2788287109       34.4821065445        6.2730933721
  H        36.3813207956       34.2088805054        9.4996439124
  H        40.5793448708       33.2018053681        5.1538750335
  H        17.4710628079        1.9469696509        7.9739833832
  H        29.2065429389       19.4591632167       12.6193490231
  H        29.8894288985       19.7224639200        3.2481285833
  H        32.2799438016       16.1648756843        3.6778736836
  H        31.2929245792       15.6609177797       12.5945380167
  H        28.3633939934       18.1469880740       14.7918557053
  H        29.6025406283       15.7418895589       14.8901221326
  H        31.4845471110       20.2035524930        1.5950179453
  H        33.0529355935       17.7644779191        1.1480791915
  H        29.4310026212       15.8477743615        1.5438599530
  H        32.1868369616       17.8731768523       14.3951604105
  H        18.8534243793        0.8688199562       12.3352739559
  H        40.5280838630       35.2289016997        3.9520784221
  H        42.3241739963       34.4190380999        3.5903912499
  H        22.0877023639        0.6922069160       12.3514538364
  H        11.5969468525       18.7128201420       12.3822970227
  H        52.2647677289       18.4309843333        3.6773175628
  H        49.2549859223       16.4767160493        3.5845012696
  H        10.1498905191       15.7982178925       12.2929252429
  H        50.8497793657       17.6924343080        3.9542974540
  H        10.0457685442       17.3945192780       12.0520095266
  H        20.2149145051        0.0022147002       12.0419498487
  H        39.1837188105       36.1244550361        3.6866199982
 Ni        31.1990912977       18.0099814242        2.7515628528
 Ni        31.3708376222       16.6940777650        0.2471206249
 Ni        30.0951853144       18.8432761104        0.2485429900
 Ni        30.1406433750       17.5028178272       13.3256335474
  O        10.6498296062       14.3651817260        5.4858269344
  O        12.6131168747       14.6575363581        6.5838817910
  O        49.1477635959       16.8459478146        7.9897288371
  O        50.3502537009       20.9358787236        5.6481766845
  O        48.3485580503       20.5932825506        6.6659808255
  O        11.0513280211       17.0538357884        6.5005529452
  O        50.3209014245       20.8816981474       10.4068011558
  O        48.3467216083       20.5867011793        9.3270878876
  O        49.5434576166       18.2484538227       10.0682845995
  O        12.3588306770       18.6244988257        7.9996418629
  O        48.6931381932       14.1487299769        6.7512287467
  O         8.2098189157       14.2104135247        9.3225346218
  O        10.7353355255       14.5067628356       10.6643463322
  O        12.5717731104       14.5828600425        9.3284963067
  O        22.8450930332        2.0437206728        5.4870919779
  O        21.6061660244        3.5927773109        6.5890141049
  O        42.0580444967       34.1372608053        7.9788047117
  O        37.9811104474       33.1353156540        5.5720705137
  O        39.2175068757       31.5749998335        6.6659375329
  O        20.3083933492        1.0394225254        6.5019747867
  O        38.0243147372       33.1848478471       10.4157280751
  O        39.2186012355       31.5831561775        9.3271721650
  O        40.6522112305       33.7692307766       10.0601275663
  O        18.2557579074        1.3758108315        7.9967391372
  O        44.6221987960       35.1005444848        6.7587478961
  O        24.2053808476        0.0000062694        9.3207543907
  O        22.7528776645        2.0574235555       10.5836092635
  O        21.6242727650        3.5957757994        9.3422329998
  O        27.5383060272       18.6800263571        5.4174209996
  O        26.7605000739       16.9368629618        6.6543715710
  O        30.6635512593       19.4080586093        8.0793916470
  O        33.5424223437       16.3423890242        5.5841895949
  O        34.2672939972       18.1686229853        6.7352277578
  O        29.5671285536       17.0683793776        6.5758051195
  O        33.5497365361       16.3385491079       10.4149248239
  O        34.2973476068       18.2368530660        9.4058207875
  O        31.6484504640       18.3145534849       10.1584343684
  O        30.3197667759       15.1551107219        8.0787883407
  O        28.5481747471       21.0331329568        6.9127731664
  O        28.5161785419       20.9555893430        9.4113668825
  O        27.4553430732       18.6799625026       10.6574978388
  O        26.6950108360       16.9280961647        9.4116180939
  O        13.1480669980       18.6932690517       10.5872389387
  O        13.9192903966       16.9162459693        9.4049813400
  O        50.5956750708       19.3501683510        8.0204641932
  O        47.6826164572       16.3270834354       10.4173023561
  O        46.9506391581       18.1755559561        9.3253171265
  O        11.0693687520       17.0156553274        9.4896761154
  O        47.6740197544       16.3361210358        5.6521913217
  O        46.9265978980       18.2360160515        6.6641013179
  O        49.5688114054       18.3177078479        5.9823341365
  O        10.3184807367       15.1002789799        7.9970573804
  O        52.6707121487       21.0279297755        9.2418381998
  O        12.1468322172       20.8911231523        6.6731581126
  O        13.1086081711       18.6135344447        5.3254206265
  O        13.9573662449       16.9868778645        6.6652924062
  O        29.9944166621       14.4391832176       10.7249099497
  O        28.0893378986       14.6540426994        9.4944083311
  O        32.0733033012       16.8657352867        8.0647799045
  O        30.9638025696       20.9498072168       10.4108173293
  O        32.9452258618       20.5973515877        9.3375724206
  O        29.5624358416       17.0806818998        9.5754278368
  O        30.8517044733       20.8864910340        5.6579406195
  O        32.8694808648       20.5814487279        6.6665019684
  O        31.6116215165       18.2592565677        5.9249522345
  O        28.2843083023       18.6780409763        8.0797869836
  O        32.4916071764       14.2136816703        9.3199489965
  O        32.3947039047       14.2280086990        6.7498539206
  O        29.8749697675       14.5125457314        5.4132370537
  O        28.0404275552       14.5896866365        6.7507590958
  O        17.8892225893        1.9665442052       10.6627756484
  O        18.9562141579        3.5270802552        9.4079089385
  O        39.1685957549       34.1386033593        7.9971006103
  O        43.2801560242       33.0589046980       10.3316914871
  O        42.0343664158       31.5064674078        9.2415873929
  O        20.3176296269        1.0367205247        9.4800514527
  O        43.2760260300       33.1825444696        5.5749012313
  O        42.0052136707       31.5841085337        6.5829820360
  O        40.5789253585       33.7748703982        5.9357254361
  O        22.3673269814        1.3846170528        7.9978186193
  O        36.6728154911       35.0996722553        9.2333731642
  O        16.4456734395        0.0640398716        6.6681699783
  O        17.9364328240        2.0432387973        5.3264172643
  O        18.9190520109        3.5931040497        6.6658840112
  O        29.5729690494       19.1164647001        3.9942084659
  O        29.7869797631       18.9079779876       12.0603128359
  O        31.3487388592       16.3404402534        3.9195753568
  O        31.1867577980       16.4733746138       12.0635477912
  O        32.4929491226       17.1464743955        1.6691823707
  O        30.3264901300       15.4628753575        1.5021466548
  O        30.4644677333       16.1230237948       14.6480577122
  O        32.6079589861       17.6466454345       15.2502840437
  O        30.7203755828       19.6420860605        1.8235607733
  O        29.2046912189       18.6008184196       14.5983282175
  O        39.4568031735       35.2437441309        4.0019975562
  O        19.1414353207        0.0044038783       11.9905030616
  O        41.9695180874       35.1726908188        4.0871674967
  O        21.6912660675       -0.0692329867       11.8958625562
  O        51.3650335390       18.6142654419        4.0054901222
  O        10.7510733924       18.7472681366       11.9049508379
  O        50.0794693540       16.4128566499        4.0917930820
  O         9.5242045895       16.4831173936       11.9911835914
 Zr         9.2956520522       16.0528677249        6.1822668628
 Zr        49.8354055198       16.0067936550        9.7466580574
 Zr        22.0735234224        0.0300157344        6.1888222010
 Zr        42.4610332880       35.1534020727        9.8008573789
 Zr        29.6122777604       19.1172184529        6.3693096180
 Zr        29.5709648225       19.1632463641        9.9264650718
 Zr        11.0369935259       19.0521536681        9.8275950035
 Zr        11.0430999330       19.1548467505        6.2514633793
 Zr        31.3267220523       16.1054376496        9.9081645841
 Zr        31.3671396687       16.0171414402        6.2301684204
 Zr        18.6013318518       -0.0014956965        9.7634142300
 Zr        18.5066903106       -0.0080930179        6.2136175444
 Zr        12.3008643826       16.3234614417        7.9902822880
 Zr        48.6149158219       18.8327246768        8.0104174308
 Zr        20.3154698219        2.4735753702        7.9901702753
 Zr        40.6434106241       32.6868232568        7.9780125190
 Zr        28.3465756897       16.3295982728        8.0873765618
 Zr        32.6317219313       18.8201705572        8.0613697364
  H        30.6776714188       15.6321395791        2.4409057688
  H        28.6485081490       18.8441881558        3.8075371699
