     566
 i =      116, E =     -4712.2391724051
  C        11.8587503480       14.0533645858        5.7415247993
  C        12.4561105626       12.8904600790        5.0232569820
  C        11.7044313846       12.1715705850        4.0815317650
  C        12.2807448083       11.1093324935        3.3892077566
  C        13.6213012727       10.7394203687        3.6169704851
  C        14.3544807633       11.4429372542        4.5904827459
  C        13.7816217963       12.5079291835        5.2819820719
  C        14.2607164292        9.6486910445        2.8435698500
  C        14.2557722770        9.6565076564        1.4218682138
  C        13.7426561296       10.7586478424        0.6679537898
  C        49.1267468864       21.2333374275        5.8796996644
  C        48.5499296215       22.4012692835        5.1527324030
  C        49.2998264725       23.0683535027        4.1714649345
  C        48.7328961576       24.1074636784        3.4382358630
  C        47.4024649235       24.5093520109        3.6670899118
  C        46.6717006336       23.8608161493        4.6809736772
  C        47.2341510126       22.8159273437        5.4103359978
  C        46.7721701513       25.5869623851        2.8697736243
  C        46.7610475490       25.5572289485        1.4480186928
  C        47.2610231885       24.4421573397        0.7045201693
  C        14.8595770330        8.5701079988        0.7085816110
  C        14.8916498218        8.5968149727        3.5202026667
  C        49.1131046404       21.2034703872       10.1452626785
  C        48.5277402062       22.3648758400       10.8723062097
  C        49.2667002351       23.0251193398       11.8657425232
  C        48.6903833736       24.0596421510       12.5972497691
  C        47.3601996228       24.4569207910       12.3585385790
  C        46.6401129833       23.8126101471       11.3343855414
  C        47.2136884062       22.7767616321       10.6025510151
  C        46.7216424553       25.5317523143       13.1496334059
  C        46.7332743491       25.5280194436       14.5713427933
  C        47.2487151281       24.4288275627       15.3277580579
  C        40.6179945436       17.0993419955       15.3186309570
  C        40.6350914902       17.1377419759       12.5078679653
  C        11.8828870322       14.0862956169       10.2855176477
  C        12.4719435744       12.9104404538       10.9896338580
  C        11.7143982061       12.1774212451       11.9158930177
  C        12.2808801669       11.0949111251       12.5842750650
  C        13.6196273499       10.7209132581       12.3523455945
  C        14.3575702844       11.4362471178       11.3913325067
  C        13.7922673891       12.5174703392       10.7186410600
  C        14.2531177761        9.6241233000       13.1227705495
  C        14.2517408225        9.6440763607       14.5446109249
  C        13.7420157863       10.7530817485       15.2916989320
  C        22.5100399051        3.2430664586        5.7503489200
  C        23.2221419613        4.3442500448        5.0434460937
  C        24.2149209739        4.0567006564        4.0950406586
  C        24.8435365240        5.0909108456        3.4070386269
  C        24.4945901266        6.4347567533        3.6467856987
  C        23.5282769761        6.7136656074        4.6306203755
  C        22.8953545534        5.6812807031        5.3177084554
  C        25.1076526171        7.5364590837        2.8711257692
  C        25.0940256077        7.5267414704        1.4496078314
  C        24.3931370438        6.5297231059        0.6996957038
  C        38.2989086615       31.9270600447        5.8503935944
  C        37.5597170552       30.8378270924        5.1462363847
  C        36.5955150879       31.1443179390        4.1733218800
  C        35.9663793213       30.1264798560        3.4610966296
  C        36.2852903940       28.7747763077        3.6981379475
  C        37.2195349964       28.4757664976        4.7081182972
  C        37.8527749549       29.4926081154        5.4196299958
  C        35.6733685667       27.6859947499        2.9003055806
  C        35.7106100879       27.6993390508        1.4782451659
  C        36.4241160876       28.6977096297        0.7426701475
  C        25.7273590038        8.5935594977        0.7337231357
  C        25.6987473455        8.6123937890        3.5448826342
  C        38.3283895522       31.9591959442       10.1597091965
  C        37.6078395338       30.8850681014       10.9060843761
  C        36.6787876241       31.1937819439       11.9120117100
  C        36.0659129402       30.1765046997       12.6422637920
  C        36.3657033278       28.8218913836       12.3920910809
  C        37.2744494796       28.5232625206       11.3577247555
  C        37.8895263387       29.5372116055       10.6287074224
  C        35.7498980926       27.7233971536       13.1752931194
  C        35.7501709678       27.7181721744       14.5984834629
  C        36.4419199509       28.7074802966       15.3658331592
  C        46.1351471393       26.6205877028       15.2814923632
  C        46.0877375696       26.5801671553       12.4736025352
  C        22.4646824806        3.2546229078       10.2540725466
  C        23.1696369996        4.3599507278       10.9695734732
  C        24.1794584558        4.0673623938       11.9000959714
  C        24.8185359368        5.0934205660       12.5912052036
  C        24.4673936824        6.4406766622       12.3744423577
  C        23.4812687284        6.7267035025       11.4116396942
  C        22.8377971535        5.7008363206       10.7203145578
  C        25.1050031560        7.5331669767       13.1499669446
  C        25.0925750449        7.5250370319       14.5721356281
  C        24.3902297804        6.5304064451       15.3231420831
  C        26.5620763769       17.8245971291        5.7861615144
  C        25.2637473639       17.8832947702        5.0555262746
  C        25.0111726614       18.8935082981        4.1147561756
  C        23.8031879623       18.9216195235        3.4222664578
  C        22.8153478380       17.9435015904        3.6517318741
  C        23.0634593305       16.9559961271        4.6230984597
  C        24.2730690837       16.9223974614        5.3129846399
  C        21.5483748624       17.9374616026        2.8824758464
  C        21.5551826262       17.9283212409        1.4607355539
  C        22.7642263974       17.8123541418        0.7045743032
  C        34.4110041851       17.2177840899        5.9117115968
  C        35.7044275853       17.1523892425        5.1667732352
  C        35.9032440270       16.1813787284        4.1725668834
  C        37.0877764982       16.1557866860        3.4400748579
  C        38.1057654767       17.1002584136        3.6797456618
  C        37.9082338304       18.0514588932        4.6990284844
  C        36.7223288637       18.0816844925        5.4297087926
  C        39.3626517618       17.1018558161        2.8947803684
  C        39.3599426326       17.1139590920        1.4726225235
  C        38.1534829899       17.2341177718        0.7135507285
  C        20.3106526773       17.9498412158        0.7501794074
  C        20.3236924231       17.9333823090        3.5626795777
  C        34.4222973700       17.2178833620       10.2241819561
  C        35.7311673902       17.1371147294       10.9360108965
  C        35.9677984626       16.1398933387       11.8947513342
  C        37.1630913022       16.1210968618       12.6086644882
  C        38.1525358600       17.0982029360       12.3835476562
  C        37.9242103294       18.0681546726       11.3897247948
  C        36.7274494155       18.0915783861       10.6780792575
  C        39.4043745837       17.1181883554       13.1736231760
  C        39.3812059673       17.1225969654       14.5948685575
  C        38.1632282991       17.2358532901       15.3368625774
  C        35.1108760968       26.6423266802       15.3011036065
  C        35.1596640032       26.6523546522       12.4909596738
  C        26.5537052734       17.8228884610       10.3224627424
  C        25.2401155530       17.8749014376       11.0222973170
  C        24.9687644773       18.8978246170       11.9431826112
  C        23.7522770027       18.9260339628       12.6177867348
  C        22.7794137778       17.9330916910       12.3912137881
  C        23.0430383250       16.9360886340       11.4348687168
  C        24.2612959773       16.9041922588       10.7601810727
  C        21.5168125981       17.9203549462       13.1637338369
  C        21.5386650433       17.9184612234       14.5847224067
  C        22.7564768176       17.8077499880       15.3281514231
  C        14.0440217496       17.8313965766       10.2845875358
  C        15.3485058159       17.8944090147       11.0035072656
  C        15.6057896262       18.9067478828       11.9406176006
  C        16.8153025431       18.9321981968       12.6306476429
  C        17.7979214529       17.9479140787       12.4041306453
  C        17.5462635113       16.9607870229       11.4332531632
  C        16.3363769001       16.9309611714       10.7444358082
  C        19.0636360800       17.9325466337       13.1739518198
  C        19.0574624898       17.9336073020       14.5953909017
  C        17.8473919466       17.8371734838       15.3520207517
  C        46.8030580396       17.2188970610       10.1592513239
  C        45.5112764014       17.1559067229       10.9049245671
  C        45.3043931266       16.1764977284       11.8888228184
  C        44.1216509806       16.1556228346       12.6238794131
  C        43.1145057175       17.1144777895       12.3981768692
  C        43.3188958980       18.0739811056       11.3879419242
  C        44.5023707337       18.0984795460       10.6536179044
  C        41.8599309520       17.1218178832       13.1866970604
  C        41.8647640627       17.1162180828       14.6093404837
  C        43.0729451343       17.2103554337       15.3696431415
  C        20.3020290061       17.9440517939       15.3061862727
  C        20.2877704858       17.9069527547       12.4938694639
  C        46.7826625013       17.2309839210        5.8883491028
  C        45.4773069547       17.1225154706        5.1733317866
  C        45.2584577057       16.1224826301        4.2134858126
  C        44.0688106812       16.0913261358        3.4891973416
  C        43.0666747630       17.0570119157        3.7069457256
  C        43.2759872146       18.0269841335        4.7052838428
  C        44.4669493093       18.0644943069        5.4245552621
  C        41.8188763898       17.0755838080        2.9097124987
  C        41.8439498658       17.0911165247        1.4881806350
  C        43.0629600374       17.1960555952        0.7465644307
  C        46.1529750108       26.6370631560        0.7262530402
  C        46.1622639235       26.6561259726        3.5358836107
  C        14.0407159494       17.8294159639        5.7070654776
  C        15.3553974810       17.9008140463        5.0090943674
  C        15.6249855685       18.9231549413        4.0872947479
  C        16.8495130983       18.9616196613        3.4256516749
  C        17.8290599513       17.9766317795        3.6612239790
  C        17.5654277502       16.9809829918        4.6189975369
  C        16.3431734255       16.9422728143        5.2847037356
  C        19.0943814960       17.9578276576        2.8925028282
  C        19.0736460797       17.9457309283        1.4715709160
  C        17.8552596756       17.8425522347        0.7281922621
  C        28.8094232634       14.0805545583       10.3646656975
  C        28.2177510639       12.8990593629       11.0509421089
  C        28.9494610764       12.1744722247       12.0030820499
  C        28.3620726232       11.0962088900       12.6602670323
  C        27.0304388690       10.7210664372       12.3898199305
  C        26.3221525256       11.4262340550       11.4000458671
  C        26.9064861593       12.5038282365       10.7409958395
  C        26.3663862372        9.6401316313       13.1532370387
  C        26.3498074404        9.6651335196       14.5743103913
  C        26.8546476151       10.7756505483       15.3225789832
  C        32.1870483521       21.2093420979       10.1514291814
  C        32.7701640293       22.3825322437       10.8704648595
  C        32.0174867810       23.0583707363       11.8436080522
  C        32.5804635623       24.1048373407       12.5692634740
  C        33.9128405620       24.5049625800       12.3456812598
  C        34.6465530879       23.8484138520       11.3389883394
  C        34.0858461543       22.7981088073       10.6139455554
  C        34.5375142060       25.5838905761       13.1479648034
  C        34.5211037648       25.5584453558       14.5705695931
  C        34.0061177584       24.4462588759       15.3090440602
  C        25.7318559210        8.5889602993       15.2893491301
  C        25.7273258550        8.5924627965       12.4771045521
  C        32.0715158596       21.1970130049        5.8801236429
  C        32.6419822225       22.3638231378        5.1398901144
  C        31.9076796348       23.0137850467        4.1359410127
  C        32.4805590247       24.0536820182        3.4048470670
  C        33.8022254318       24.4737444964        3.6561948537
  C        34.5170512510       23.8378405752        4.6899157544
  C        33.9493483213       22.7948453935        5.4169224910
  C        34.4443646718       25.5571941460        2.8731008571
  C        34.4716067210       25.5459700653        1.4503706700
  C        33.9805847766       24.4410603315        0.6858712527
  C        40.6068358871       17.0903733935        0.7638941170
  C        40.5869589542       17.0984925602        3.5741133995
  C        28.6968331271       14.0567020790        5.8194688234
  C        28.1013898277       12.9090621898        5.0765182567
  C        28.8577555778       12.1982888478        4.1319223585
  C        28.2880264699       11.1405023648        3.4282853874
  C        26.9481244221       10.7647258067        3.6481808344
  C        26.2081867579       11.4613751183        4.6217141102
  C        26.7751314801       12.5217703528        5.3248357407
  C        26.3193645228        9.6711819284        2.8707293273
  C        26.3285113810        9.6803598522        1.4493498092
  C        26.8427316042       10.7838071408        0.6985178478
  C        18.1353685857        3.1808964614       10.3171134819
  C        17.4059119048        4.2780736530       11.0157047275
  C        16.3898727267        3.9995745223       11.9428274878
  C        15.7419792273        5.0394791748       12.6062841223
  C        16.0940876848        6.3832123730       12.3669842473
  C        17.0838431847        6.6528769336       11.4036514845
  C        17.7331048589        5.6156129033       10.7386181242
  C        15.4695685199        7.4908084796       13.1300572219
  C        15.4847071222        7.4900598321       14.5517792007
  C        16.1862512748        6.4964292372       15.3049340586
  C        42.9457122805       31.8595576010       10.0728014758
  C        43.6460922517       30.7717781129       10.8167782710
  C        44.5915829392       31.0931050973       11.8028622445
  C        45.1972744485       30.0875609067       12.5505616403
  C        44.8708270732       28.7345190286       12.3356886879
  C        43.9450635445       28.4201728243       11.3224310708
  C        43.3362543856       29.4253180535       10.5743770284
  C        45.4883745577       27.6551928889       13.1388789953
  C        45.4924504898       27.6807306591       14.5605785022
  C        44.8053402532       28.6887724537       15.3071922153
  C        14.8557226082        8.5625429145       15.2641460990
  C        14.8743831042        8.5626197544       12.4514720643
  C        42.9463705389       31.9616904904        5.8090422815
  C        43.6916300524       30.8854424296        5.0955456036
  C        44.6562771414       31.1913446885        4.1233231103
  C        45.2777951121       30.1717507162        3.4055731684
  C        44.9538414685       28.8214748426        3.6430891616
  C        44.0202847428       28.5238013546        4.6537833593
  C        43.3920280102       29.5405799338        5.3659656568
  C        45.5628437519       27.7240419514        2.8578327095
  C        45.5329748278       27.7172109174        1.4365377771
  C        44.8266505438       28.7074407355        0.6835868142
  C        35.0882182675       26.6343482985        0.7472606141
  C        35.0571788193       26.6148219816        3.5581709516
  C        18.1486523631        3.2468806925        5.7065960022
  C        17.4300140467        4.3436705623        4.9972424361
  C        16.4144414593        4.0523678972        4.0740807170
  C        15.7660302595        5.0829501589        3.3987054007
  C        16.1210056241        6.4281697700        3.6210218404
  C        17.1128541724        6.7116204110        4.5777645575
  C        17.7606105334        5.6827373258        5.2575174432
  C        15.4903150900        7.5238028899        2.8485999082
  C        15.4959146832        7.5070621296        1.4274575677
  C        16.1925590087        6.5052860724        0.6807500845
  H        10.6723379609       12.4657548053        3.9044366743
  H        11.6944761547       10.5508800915        2.6626319593
  H        15.3915135348       11.1683415816        4.7722177947
  H        14.3511762855       13.0710654384        6.0174169315
  H        13.3759224604       11.6309073616        1.2012293781
  H        50.3224646520       22.7481792794        3.9865649075
  H        49.3193217739       24.6225627654        2.6804966137
  H        45.6423737993       24.1619637239        4.8644581823
  H        46.6633104887       22.2909986908        6.1727709166
  H        47.6297193381       23.5758447379        1.2461972004
  H        14.8723142648        8.5881848042        4.6085151374
  H        50.2865657661       22.7019178193       12.0610221199
  H        49.2686503731       24.5747561757       13.3610794748
  H        45.6109825836       24.1104508061       11.1447699246
  H        46.6531492136       22.2551525109        9.8304105064
  H        47.6076313075       23.5517460669       14.7968985572
  H        40.6409013256       17.1106179041       11.4198370176
  H        48.6871311604       14.0952053515        7.8000146764
  H        10.6810029116       12.4666637048       12.0934241568
  H        11.6891089328       10.5246302067       13.2970747075
  H        15.3929621783       11.1582526697       11.2053311421
  H        14.3647346593       13.0866824298        9.9900894453
  H        13.3754156973       11.6218068344       14.7530899500
  H        47.9301903404       14.2183316772        9.7110614941
  H        47.7799929647       14.3740429774        6.4954077362
  H        49.0834707077       18.5527603161       10.8673147890
  H        10.4162219695       14.1343032504        7.9987002114
  H        24.4721768180        3.0164375646        3.9086792939
  H        25.6149369480        4.8680283458        2.6731172975
  H        23.2514131304        7.7484179102        4.8214873413
  H        22.1280464011        5.8871453172        6.0600203528
  H        23.8251369846        5.7756392331        1.2366818252
  H        36.3634347608       32.1884095386        3.9768731247
  H        35.2194465231       30.3702288681        2.7087273648
  H        37.4746479447       27.4356127234        4.9003050603
  H        38.5990743238       29.2669991376        6.1778100126
  H        36.9887789943       29.4465271531        1.2904788923
  H        25.7211556712        8.5995061774        4.6330627196
  H        36.4562254127       32.2381377540       12.1191904761
  H        35.3398390866       30.4251374118       13.4131662797
  H        37.5207074229       27.4828943017       11.1556230252
  H        38.6118626938       29.3080338701        9.8489122664
  H        37.0214410128       29.4633091187       14.8435307501
  H        46.1093271037       26.5877454478       11.3855716007
  H        44.6683123812       35.1162032431        7.8141199566
  H        24.4532530204        3.0274861425       12.0631439029
  H        25.6042568678        4.8607190380       13.3067925302
  H        23.1994371393        7.7629287445       11.2361656200
  H        22.0603104055        5.9179553562        9.9914899076
  H        23.8196106145        5.7772185655       14.7876584824
  H        44.9537188580       34.3901109268        9.6949444223
  H        44.9020302564       34.2068455997        6.4908033433
  H        40.6656177871       33.2087744458       10.8530904708
  H        23.1503796484        1.9578558736        8.0040292994
  H        25.7697883808       19.6536549237        3.9432707561
  H        23.6086701711       19.7094532744        2.6977631839
  H        22.3095541041       16.1929824867        4.8056040962
  H        24.4796815827       16.1479497210        6.0478695525
  H        23.7041813427       17.6932290864        1.2357450063
  H        35.1133415691       15.4575888666        3.9837939782
  H        37.2405693191       15.3931260012        2.6794397158
  H        38.6843308923       18.7899646782        4.8893764055
  H        36.5553958034       18.8310769398        6.2000541011
  H        37.2147002988       17.3571875055        1.2457149009
  H        20.3282381571       17.9632040398        4.6508011977
  H        35.2014674379       15.3891006846       12.0736101693
  H        37.3447860553       15.3445939404       13.3486138019
  H        38.6816425104       18.8282808541       11.2095820440
  H        36.5308985498       18.8572325001        9.9311818710
  H        37.2315532790       17.3587669433       14.7921410929
  H        35.1385319100       26.6769388371       11.4030262057
  H        28.5031037939       21.0801948828        7.8976431944
  H        25.7225592084       19.6629747065       12.1130803528
  H        23.5406023585       19.7203188840       13.3302742215
  H        22.2976677635       16.1639072927       11.2560534148
  H        24.4843987607       16.1223276965       10.0381747356
  H        23.6904281109       17.6855743657       14.7871901330
  H        28.9974266054       21.7172480794        9.7533400333
  H        29.1983214731       21.6953635238        6.5582425877
  H        32.0661717647       18.5826875730       10.9854087635
  H        27.3699173534       19.0257672162        8.0816778696
  H        14.8473432895       19.6671207823       12.1125252495
  H        17.0143581079       19.7213705790       13.3524731356
  H        18.2972169419       16.1946447228       11.2517002404
  H        16.1268679764       16.1565238633       10.0105043693
  H        16.9064336348       17.7248401237       14.8214276264
  H        46.0875759722       15.4442574438       12.0708094734
  H        43.9634145014       15.3874266721       13.3776548592
  H        42.5507677191       18.8233822273       11.2083201463
  H        44.6749492539       18.8539351006        9.8905552529
  H        44.0149153874       17.3267765997       14.8412871066
  H        20.2841767649       17.9304780941       11.4056241434
  H        46.0366028298       15.3835983198        4.0358745173
  H        43.9038944985       15.3147558748        2.7454213594
  H        42.5085207352       18.7779297921        4.8811075698
  H        44.6482098267       18.8329256819        6.1721279602
  H        43.9974659841       17.3002841775        1.2902878941
  H        46.1992679729       26.6828280824        4.6233196562
  H        52.7413966982       21.0627652774        8.1946454446
  H        14.8656057860       19.6809496716        3.9078721800
  H        17.0610883185       19.7572959244        2.7146099215
  H        18.3149371669       16.2146510561        4.8055307167
  H        16.1222161299       16.1627196175        6.0096971847
  H        16.9202733301       17.7344707870        1.2697037476
  H        52.3229315486       21.6738600149        6.2945253325
  H        52.0140716489       21.7030336003        9.4954889288
  H        49.0676850339       18.6078526557        5.2039766123
  H        13.2473553269       19.0161623182        7.9762397748
  H        29.9722003944       12.4766324291       12.2175272507
  H        28.9295131823       10.5333278434       13.3981732342
  H        25.2932499664       11.1458832874       11.1843599018
  H        26.3562922442       13.0709501664        9.9942954788
  H        27.2244503809       11.6441337145       14.7855683525
  H        30.9942196492       22.7384469585       12.0262270058
  H        31.9895246269       24.6269963498       13.3186313204
  H        35.6771939078       24.1464742404       11.1574271627
  H        34.6598850698       22.2692799586        9.8565153504
  H        33.6545570030       23.5756113425       14.7629277684
  H        25.7588180163        8.5750283885       11.3891231908
  H        30.8921992832       22.6814334970        3.9315389221
  H        31.9024830210       24.5566258183        2.6325991272
  H        35.5398459773       24.1487147403        4.8927488742
  H        34.5097792004       22.2831824581        6.1957628750
  H        33.6087773980       23.5666445758        1.2124393865
  H        40.5800396034       17.0619753952        4.6618625908
  H        32.5127040788       14.1555372076        8.2541079385
  H        29.8945304624       12.4830198867        3.9685753036
  H        28.8804309825       10.5864729550        2.7033872398
  H        25.1710650130       11.1825896082        4.7963854865
  H        26.2012690572       13.0767468360        6.0630715861
  H        27.2022592156       11.6586541877        1.2325461936
  H        33.2959718390       14.2200364923        6.4377626342
  H        33.4061014328       14.3925538767        9.6080652337
  H        32.0494220436       18.5071447533        5.1130294650
  H        30.2128654086       14.1421106830        8.0798164389
  H        16.1177087424        2.9630472850       12.1289428657
  H        14.9522966971        4.8200105539       13.3216599459
  H        17.3665729912        7.6857483220       11.2109491376
  H        18.5154777149        5.8183870850       10.0111608468
  H        16.7528297656        5.7391246471       14.7714046485
  H        44.8278488999       32.1402008438       11.9770139452
  H        45.9371308905       30.3413377349       13.3065097878
  H        43.6824155092       27.3780980485       11.1522904534
  H        42.5996710845       29.1900612691        9.8096517449
  H        44.2300907517       29.4366040318       14.7688595200
  H        14.8508656039        8.5459603206       11.3632450458
  H        44.8999333570       32.2340276249        3.9320098779
  H        46.0247747907       30.4129854830        2.6524088617
  H        43.7632183498       27.4840819887        4.8452541012
  H        42.6454526832       29.3178702834        6.1243651903
  H        44.2682516451       29.4703938991        1.2181967037
  H        35.0099306565       26.6287304096        4.6454799231
  H        36.6053581079       35.1338554101        8.1807498030
  H        16.1431360239        3.0127965665        3.9046836289
  H        14.9734292852        4.8560811225        2.6889354717
  H        17.3967611270        7.7470555288        4.7542128013
  H        18.5438911789        5.8932481490        5.9818287175
  H        16.7640905276        5.7551078888        1.2191725728
  H        36.2791014801       34.4819787884        6.2732647636
  H        36.3811245929       34.2089130463        9.4997597649
  H        40.5790829402       33.2022013772        5.1540264969
  H        17.4711122653        1.9472723518        7.9740263059
  H        28.6761333314       18.8158489871       12.2499046932
  H        28.6979633455       18.8612284814        3.8740632969
  H        30.5936988826       15.4169982952        3.8765637489
  H        32.2416916246       16.4926094410       12.4159693521
  H        29.4008671699       19.1099435886       14.7624632137
  H        31.9081185526       16.3776651067        1.5845288771
  H        18.8538115518        0.8689963384       12.3351394030
  H        40.5283358821       35.2290031856        3.9521481436
  H        42.3236047385       34.4187310955        3.5904308870
  H        22.0872846405        0.6923602360       12.3514664878
  H        11.5966658463       18.7126562131       12.3825831559
  H        52.2649988014       18.4315160354        3.6774643551
  H        49.2554374885       16.4763016309        3.5838695934
  H        10.1506499961       15.7982891226       12.2923122127
  H        50.8503152631       17.6927165024        3.9539511102
  H        10.0462752989       17.3948883676       12.0518433997
  H        20.2153358430        0.0021478581       12.0418732497
  H        39.1837568397       36.1243329323        3.6863768459
 Ni        30.1801531520       17.4770574681        2.8289203715
 Ni        31.2412462958       16.4288862043       -0.7514767826
 Ni        29.5510277720       17.3489117669        0.3382710607
 Ni        30.2282629066       17.4017041104       13.4073276874
  O        10.6498864723       14.3651947226        5.4858171950
  O        12.6130657322       14.6574277030        6.5838720495
  O        49.1475798895       16.8458906106        7.9896360547
  O        50.3501418969       20.9361436304        5.6481163331
  O        48.3484578637       20.5932585290        6.6659191556
  O        11.0510408406       17.0540064387        6.5006319493
  O        50.3208021816       20.8816677479       10.4068809671
  O        48.3466163080       20.5866463561        9.3270673855
  O        49.5432939535       18.2483184223       10.0682827583
  O        12.3587827865       18.6246988119        7.9996086229
  O        48.6931572132       14.1486589451        6.7512685662
  O         8.2097978147       14.2105663553        9.3225666471
  O        10.7352278291       14.5067823869       10.6643416414
  O        12.5716696019       14.5826812466        9.3285448065
  O        22.8441048557        2.0414893448        5.4874922993
  O        21.6059429288        3.5924320120        6.5889419360
  O        42.0579204639       34.1371471619        7.9790678867
  O        37.9812519908       33.1357234147        5.5720205758
  O        39.2172442287       31.5748844127        6.6656046714
  O        20.3083926619        1.0398099416        6.5020256321
  O        38.0235964260       33.1834689734       10.4162485743
  O        39.2178410143       31.5822982483        9.3278724651
  O        40.6520615831       33.7690716121       10.0601977164
  O        18.2559197960        1.3762764084        7.9968101323
  O        44.6222321622       35.1005067045        6.7588667934
  O        24.2054425467       -0.0000918677        9.3207583293
  O        22.7529769929        2.0563386450       10.5829822799
  O        21.6246432181        3.5959351114        9.3427658757
  O        27.4594853500       18.6944861850        5.4909065094
  O        26.6902267047       16.9176813716        6.6701656066
  O        30.6337717368       19.3466007953        8.0567738292
  O        33.5343657884       16.3279811889        5.6528941374
  O        34.2665047558       18.1774769226        6.7442024080
  O        29.5303455432       17.0083956672        6.5808430839
  O        33.5356389979       16.3311324268       10.5069415112
  O        34.2664912840       18.1767617587        9.4053991239
  O        31.6443567025       18.3134932730       10.1541348496
  O        30.2915558899       15.1097157048        8.0816076126
  O        28.5475187860       21.0259778082        6.8404242793
  O        28.5146535164       20.9501744963        9.4026549927
  O        27.4428267129       18.6778068016       10.6544830068
  O        26.6872773096       16.9260144084        9.4164913589
  O        13.1455962324       18.6938727070       10.5860676868
  O        13.9173231469       16.9159659903        9.4038206672
  O        50.5958907110       19.3503237482        8.0203985786
  O        47.6813491020       16.3274747703       10.4177341339
  O        46.9503941836       18.1759079314        9.3252415006
  O        11.0689203221       17.0159480261        9.4894284782
  O        47.6738354901       16.3360223808        5.6524721225
  O        46.9246818466       18.2360063870        6.6632110366
  O        49.5687529014       18.3177182493        5.9822062373
  O        10.3186558312       15.1001366868        7.9971421366
  O        52.6707135695       21.0279872672        9.2417805821
  O        12.1468296579       20.8914378608        6.6733339196
  O        13.1049543764       18.6142515199        5.3262949629
  O        13.9552175845       16.9865269218        6.6654344666
  O        29.9974625924       14.4387061379       10.6697209416
  O        28.0729295394       14.6533511972        9.4908192244
  O        32.0673653478       16.8521389471        8.0828549152
  O        30.9828673079       20.8905009087       10.4218279047
  O        32.9533804539       20.5908224847        9.3299540734
  O        29.5593569730       17.0605469595        9.5723469893
  O        30.8471299590       20.8831057643        5.6606113627
  O        32.8670968521       20.5792153911        6.6656786903
  O        31.6108069517       18.2404158976        5.9369959866
  O        28.2552865145       18.6268460811        8.0744621508
  O        32.4902882709       14.2161656783        9.3283032474
  O        32.4029898736       14.2161485253        6.8207382379
  O        29.8833523889       14.4230561081        5.4990939687
  O        27.9746043141       14.5807746794        6.7398766440
  O        17.8892464157        1.9665034345       10.6628089513
  O        18.9562346270        3.5271006920        9.4080411107
  O        39.1684264938       34.1385320519        7.9972056943
  O        43.2801690578       33.0588414764       10.3317195044
  O        42.0343310691       31.5063986067        9.2416051851
  O        20.3173172836        1.0363941696        9.4800218895
  O        43.2761199308       33.1825145249        5.5748620348
  O        42.0052006173       31.5841207262        6.5830135823
  O        40.5790101516       33.7751361946        5.9359679659
  O        22.3672664015        1.3845878645        7.9979873058
  O        36.6729107224       35.0995972128        9.2333987192
  O        16.4457262962        0.0640958139        6.6682492994
  O        17.9364102274        2.0432148095        5.3264481855
  O        18.9190597970        3.5931129888        6.6659016945
  O        29.6548702448       18.8334517990        4.0800500999
  O        29.6216235147       18.7605264938       12.0097123933
  O        31.0541790473       16.2559767187        4.0757050779
  O        31.3071229398       16.4108532849       12.1586615222
  O        32.5341803992       16.1906319825        0.8310398027
  O        29.1089385492       18.1775749530       14.7330968064
  O        39.4568772455       35.2437198531        4.0020038096
  O        19.1416912763        0.0044844951       11.9904758576
  O        41.9694933460       35.1727222525        4.0870692027
  O        21.6912328472       -0.0693844050       11.8960248722
  O        51.3649747933       18.6144095358        4.0052185275
  O        10.7508485434       18.7471515823       11.9050876103
  O        50.0795276553       16.4126447521        4.0917101116
  O         9.5245467136       16.4831341302       11.9911704044
 Zr         9.2975891889       16.0528347284        6.1822538676
 Zr        49.8369297358       16.0068639265        9.7465577460
 Zr        22.0733832556        0.0301356690        6.1890368771
 Zr        42.4608785531       35.1538069598        9.8009951221
 Zr        29.5674693849       19.0486973299        6.2786219728
 Zr        29.5568425705       19.1586978262        9.8800707032
 Zr        11.0379263836       19.0523782041        9.8278385783
 Zr        11.0442122851       19.1551237073        6.2508558207
 Zr        31.3095637521       16.0926926269        9.9037129173
 Zr        31.3512228889       15.9989706811        6.2827403018
 Zr        18.6012238163       -0.0015825322        9.7636246192
 Zr        18.5067944708       -0.0075671143        6.2136161326
 Zr        12.3019513831       16.3231730669        7.9904602275
 Zr        48.6170727671       18.8331737540        8.0099621282
 Zr        20.3155901828        2.4740581239        7.9906141367
 Zr        40.6429339910       32.6871173280        7.9782327433
 Zr        28.3158730472       16.3152018522        8.0847652314
 Zr        32.5953710662       18.8251039871        8.0500340416
  H        29.8231563469       16.4388779282        1.6444175181
  H        33.1851471351       16.9139502957        0.8784617151
