     569
 i =      178, E =     -4729.5036566914
  C        11.8588162034       14.0534784743        5.7415478853
  C        12.4563297576       12.8906067443        5.0232252101
  C        11.7046169833       12.1715856502        4.0816407825
  C        12.2810196171       11.1093907346        3.3893074530
  C        13.6216350877       10.7396846460        3.6169725673
  C        14.3548414889       11.4433914188        4.5903101367
  C        13.7819401590       12.5083683484        5.2818042997
  C        14.2611404022        9.6489921776        2.8435958913
  C        14.2563926208        9.6568885766        1.4219021659
  C        13.7432722358       10.7590334277        0.6679996353
  C        49.1269150431       21.2331860261        5.8796602743
  C        48.5502186614       22.4011734602        5.1526342421
  C        49.3001830372       23.0683270559        4.1714703969
  C        48.7332711980       24.1074908438        3.4382853565
  C        47.4028174073       24.5093526883        3.6670667514
  C        46.6719744535       23.8606942268        4.6808112876
  C        47.2344035373       22.8157814105        5.4101605059
  C        46.7725385547       25.5870239908        2.8697906876
  C        46.7615074185       25.5573959925        1.4480255125
  C        47.2614899698       24.4423397164        0.7045069178
  C        14.8602807118        8.5705241650        0.7086394669
  C        14.8919114269        8.5970459554        3.5202488480
  C        49.1132990887       21.2034918667       10.1453879783
  C        48.5279882600       22.3649066306       10.8724751623
  C        49.2671294693       23.0254032216       11.8656056712
  C        48.6908277882       24.0599855425       12.5970504377
  C        47.3605257750       24.4570259865       12.3586032053
  C        46.6402543787       23.8123972428       11.3347908601
  C        47.2137776897       22.7764801518       10.6030094991
  C        46.7220299167       25.5319409414       13.1496544473
  C        46.7337217004       25.5282435488       14.5713627250
  C        47.2492075929       24.4290527358       15.3277451309
  C        40.6269749299       17.1073226610       15.3202137391
  C        40.6385853291       17.1457603587       12.5099484212
  C        11.8830453469       14.0865225353       10.2855281571
  C        12.4723173964       12.9107299698       10.9897295802
  C        11.7148172983       12.1775179632       11.9158535362
  C        12.2814170525       11.0950644471       12.5842533731
  C        13.6202463621       10.7213370120       12.3524171287
  C        14.3582008141       11.4369259052       11.3916117570
  C        13.7927696834       12.5181037657       10.7189398164
  C        14.2538384236        9.6245674493       13.1228240015
  C        14.2525415179        9.6445353929       14.5446667102
  C        13.7427219842       10.7535103426       15.2917447624
  C        22.5126168340        3.2439366873        5.7535544644
  C        23.2299396908        4.3478222616        5.0546867958
  C        24.2262874233        4.0646707131        4.1087257054
  C        24.8568045376        5.1021305109        3.4268891108
  C        24.5067120876        6.4449202107        3.6709901351
  C        23.5385509870        6.7196004799        4.6540088068
  C        22.9033243526        5.6838744746        5.3342654047
  C        25.1155392173        7.5495515784        2.8952090067
  C        25.0861274270        7.5432210973        1.4737634805
  C        24.3802033050        6.5462160807        0.7282045904
  C        38.2976181322       31.9275716485        5.8519825528
  C        37.5551577895       30.8392195881        5.1510998047
  C        36.5890872573       31.1469967320        4.1805045734
  C        35.9574318247       30.1298459275        3.4699207939
  C        36.2761685392       28.7780194149        3.7060742719
  C        37.2114450865       28.4776824849        4.7146121542
  C        37.8470604649       29.4938481368        5.4247809958
  C        35.6649577886       27.6905913434        2.9064508659
  C        35.7049856801       27.7060791512        1.4846571766
  C        36.4182935876       28.7068442386        0.7521069015
  C        25.7103935610        8.6122783480        0.7536850257
  C        25.7162109722        8.6223790903        3.5657825608
  C        38.3304629411       31.9606211513       10.1605210401
  C        37.6140366938       30.8878659389       10.9103693660
  C        36.6808138890       31.1978514339       11.9118594940
  C        36.0706151695       30.1813379565       12.6448378467
  C        36.3784668460       28.8275515390       12.4012539827
  C        37.2928700519       28.5275205509       11.3725856196
  C        37.9047189131       29.5405595004       10.6404734111
  C        35.7625633093       27.7295827483       13.1831096289
  C        35.7544415387       27.7262818881       14.6058657372
  C        36.4403784754       28.7177268358       15.3754804993
  C        46.1356037707       26.6208096811       15.2815187085
  C        46.0880030781       26.5802790128       12.4736242764
  C        22.4608729948        3.2558641543       10.2579676937
  C        23.1551316745        4.3642048164       10.9815582078
  C        24.1572344836        4.0771919071       11.9221236512
  C        24.7858780600        5.1065545484       12.6186441783
  C        24.4327864249        6.4528539712       12.3973029868
  C        23.4534703465        6.7331267240       11.4255171095
  C        22.8201625540        5.7039571339       10.7294496374
  C        25.0654250538        7.5500274134       13.1715721725
  C        25.0607290010        7.5430407702       14.5945251245
  C        24.3662385662        6.5471290729       15.3513499208
  C        26.6158836169       17.8585087135        5.7802777527
  C        25.3110096664       17.9036369719        5.0554744097
  C        25.0500443721       18.8989212502        4.1002678043
  C        23.8372579333       18.9159002229        3.4143168557
  C        22.8485905870       17.9420406181        3.6621470633
  C        23.1056338317       16.9696365582        4.6471563043
  C        24.3206447956       16.9462079293        5.3299704682
  C        21.5758734975       17.9254748549        2.8973699529
  C        21.5769678085       17.9041024054        1.4747687892
  C        22.7830336901       17.7815385365        0.7147878128
  C        34.4390693069       17.1933908450        5.9238562189
  C        35.7330120395       17.1452441890        5.1806581268
  C        35.9487390382       16.1616502918        4.2027415259
  C        37.1285415826       16.1486880335        3.4644092532
  C        38.1265703047       17.1171386167        3.6857616738
  C        37.9151097285       18.0815189239        4.6891881820
  C        36.7313121392       18.1005117292        5.4237668107
  C        39.3802271864       17.1223621422        2.8976247228
  C        39.3734681993       17.1276843633        1.4760186466
  C        38.1642799026       17.2434444393        0.7209812119
  C        20.3306382605       17.9223454705        0.7657744566
  C        20.3508488604       17.9280073589        3.5792413863
  C        34.4165806400       17.2233257403       10.2570890004
  C        35.7281410511       17.1478660367       10.9617782801
  C        35.9687042091       16.1527590647       11.9216079287
  C        37.1680722964       16.1331536442       12.6270008864
  C        38.1565865467       17.1086420148       12.3930714280
  C        37.9250243790       18.0761910119       11.3978733737
  C        36.7243891539       18.0993186748       10.6931513209
  C        39.4098670110       17.1283678624       13.1787625554
  C        39.3885444254       17.1322639385       14.5999499081
  C        38.1716343560       17.2446216605       15.3441735830
  C        35.1138394947       26.6496812963       15.3056982232
  C        35.1800883378       26.6566585929       12.4957221356
  C        26.5717197035       17.8278753626       10.3226452353
  C        25.2555240499       17.8749832777       11.0263277747
  C        24.9897458547       18.8821167465       11.9663961002
  C        23.7730944786       18.9059088500       12.6426362050
  C        22.7921971747       17.9233549033       12.4006961478
  C        23.0513230962       16.9423607455       11.4264462506
  C        24.2692005211       16.9158025976       10.7495832994
  C        21.5289317293       17.9032667883       13.1745568090
  C        21.5527090601       17.8918906524       14.5961064383
  C        22.7710071215       17.7761913755       15.3382237839
  C        14.0468500762       17.8289455394       10.2886508564
  C        15.3513493552       17.8858654586       11.0133106821
  C        15.6077032490       18.8872743927       11.9629264969
  C        16.8168093214       18.9071640769       12.6555757398
  C        17.8038840106       17.9286125953       12.4206808823
  C        17.5524480755       16.9518777286       11.4385839798
  C        16.3427462669       16.9272054971       10.7476889369
  C        19.0728142574       17.9102442498       13.1896974680
  C        19.0711954928       17.9044766540       14.6121406760
  C        17.8640530223       17.8034245636       15.3729229724
  C        46.8036931190       17.2183665909       10.1583313414
  C        45.5121274775       17.1549733979       10.9026448877
  C        45.3040178834       16.1735895264       11.8841832544
  C        44.1215644357       16.1535893276       12.6192846064
  C        43.1169677466       17.1154926514       12.3958285410
  C        43.3220334031       18.0762206779       11.3870746759
  C        44.5050545026       18.0996974145       10.6524669316
  C        41.8644058916       17.1257823133       13.1862742164
  C        41.8723464417       17.1199887838       14.6085902486
  C        43.0826423299       17.2103491721       15.3659646951
  C        20.3177759469       17.9150406952       15.3207497248
  C        20.2971100758       17.8923811390       12.5076429869
  C        46.7862458718       17.2313111038        5.8892844218
  C        45.4836395132       17.1255879386        5.1731652843
  C        45.2641495940       16.1237705352        4.2157710959
  C        44.0765962185       16.0965480719        3.4889414038
  C        43.0800075465       17.0682465764        3.7031082444
  C        43.2899551629       18.0403813054        4.6987554817
  C        44.4785126306       18.0737600976        5.4207046697
  C        41.8337077875       17.0896972111        2.9071363950
  C        41.8569432763       17.0997638624        1.4862664875
  C        43.0753104730       17.1981775648        0.7428329248
  C        46.1533936442       26.6372254772        0.7262807774
  C        46.1625329322       26.6561227740        3.5359263084
  C        14.0453784687       17.8308846216        5.7081357125
  C        15.3658132264       17.9028911093        5.0166291129
  C        15.6398590835       18.9163210332        4.0860531091
  C        16.8687189239       18.9513141792        3.4308501141
  C        17.8512838310       17.9719772537        3.6802996010
  C        17.5840189426       16.9874870626        4.6489717078
  C        16.3572049927       16.9519225446        5.3076634282
  C        19.1186997598       17.9453555446        2.9117254613
  C        19.0952857426       17.9210497559        1.4902507631
  C        17.8758407629       17.8108060190        0.7491600636
  C        28.8060001585       14.0913823688       10.3910980284
  C        28.1970786020       12.9158908123       11.0774075813
  C        28.9214124203       12.1774539617       12.0251479214
  C        28.3238406129       11.1020349991       12.6776409715
  C        26.9882676100       10.7411873459       12.4066630163
  C        26.2864404201       11.4598012445       11.4219399000
  C        26.8813143196       12.5353151477       10.7677080857
  C        26.3205665694        9.6611100202       13.1684289502
  C        26.3121656736        9.6859371502       14.5896120761
  C        26.8195592778       10.7967495455       15.3357448680
  C        32.1821066943       21.2360332475       10.1473570374
  C        32.7762050833       22.4026745303       10.8659948906
  C        32.0221375990       23.0931584284       11.8279421080
  C        32.5908837256       24.1327628135       12.5573918284
  C        33.9304324178       24.5131930956       12.3462942070
  C        34.6673081649       23.8432612804       11.3510686113
  C        34.1008674684       22.7974222625       10.6239087486
  C        34.5547331972       25.5896698415       13.1506035769
  C        34.5282767718       25.5655430802       14.5726859720
  C        34.0077530647       24.4539397024       15.3077800600
  C        25.7017685953        8.6086193349       15.3087465539
  C        25.6807149842        8.6120838217       12.4952383408
  C        32.0773968293       21.1962031903        5.8770941388
  C        32.6442473021       22.3606818794        5.1338628795
  C        31.9117710117       23.0014755583        4.1227565213
  C        32.4815282975       24.0446690594        3.3943623819
  C        33.7979434577       24.4752741696        3.6545124188
  C        34.5112027925       23.8468282673        4.6939585990
  C        33.9464785736       22.8017089856        5.4193886170
  C        34.4382671439       25.5608472467        2.8739644344
  C        34.4681973671       25.5511537961        1.4513156565
  C        33.9783353014       24.4473109876        0.6844541721
  C        40.6186352071       17.1007731761        0.7648829307
  C        40.6043889961       17.1204944476        3.5748805293
  C        28.7469524668       14.0671146382        5.8188695779
  C        28.1395139488       12.9190025016        5.0820028550
  C        28.8754626750       12.2295147528        4.1063816904
  C        28.2984938662       11.1706624467        3.4093972899
  C        26.9690862302       10.7759766568        3.6616624518
  C        26.2502613809       11.4538165205        4.6640815774
  C        26.8260112139       12.5125650273        5.3636587049
  C        26.3288037022        9.6848626249        2.8886263073
  C        26.3172268507        9.6982327024        1.4666746953
  C        26.8195622358       10.8043882777        0.7117482961
  C        18.1354125574        3.1808691324       10.3171275440
  C        17.4060901600        4.2781364682       11.0157340927
  C        16.3902976097        3.9997818567       11.9431694087
  C        15.7425690035        5.0397666323       12.6066673770
  C        16.0945484403        6.3834841517       12.3670603576
  C        17.0839930272        6.6530065743       11.4033569564
  C        17.7330792089        5.6156569168       10.7383001645
  C        15.4702188259        7.4911885198       13.1301168471
  C        15.4854478204        7.4904827619       14.5518378315
  C        16.1869351586        6.4968215613       15.3050175130
  C        42.9457548666       31.8594826096       10.0727985383
  C        43.6461160487       30.7717926556       10.8168074354
  C        44.5915446441       31.0931643655       11.8029519164
  C        45.1972821671       30.0876533809       12.5506440038
  C        44.8709790223       28.7345722047       12.3357331652
  C        43.9452576319       28.4201877239       11.3224387302
  C        43.3364064113       29.4252964455       10.5743717017
  C        45.4886366691       27.6553013256       13.1389163800
  C        45.4927814853       27.6808849603       14.5606162464
  C        44.8056095635       28.6888596102       15.3072599981
  C        14.8565116316        8.5629953435       15.2642058020
  C        14.8750173961        8.5630098142       12.4515292235
  C        42.9463716446       31.9615718306        5.8089654363
  C        43.6916144971       30.8854165478        5.0954688069
  C        44.6564017059       31.1913258006        4.1233646609
  C        45.2779482777       30.1717435895        3.4056404548
  C        44.9540074533       28.8214423702        3.6431230884
  C        44.0202703784       28.5237668179        4.6536553900
  C        43.3919734927       29.5405330426        5.3658150934
  C        45.5631051946       27.7240485780        2.8578836211
  C        45.5333508024       27.7173297006        1.4365861200
  C        44.8269194195       28.7074972004        0.6836540697
  C        35.0857277521       26.6410048749        0.7513584477
  C        35.0486619874       26.6181572194        3.5616206758
  C        18.1486287876        3.2469178846        5.7066113936
  C        17.4300513325        4.3437856493        4.9973211604
  C        16.4146989007        4.0525229837        4.0739055466
  C        15.7663902853        5.0831603475        3.3985182192
  C        16.1211877738        6.4283795995        3.6211088897
  C        17.1127396505        6.7117582147        4.5781835825
  C        17.7604082081        5.6828416474        5.2579594313
  C        15.4906674139        7.5240732003        2.8486649258
  C        15.4964804644        7.5074117180        1.4275301547
  C        16.1931601192        6.5056533341        0.6808327135
  H        10.6724522880       12.4656204564        3.9046859932
  H        11.6947374409       10.5508140923        2.6628382437
  H        15.3919362423       11.1689523007        4.7719126103
  H        14.3514917175       13.0717263504        6.0170687135
  H        13.3763640507       11.6311957087        1.2013165783
  H        50.3228259760       22.7481587706        3.9865841770
  H        49.3197417178       24.6226438969        2.6806183242
  H        45.6425912985       24.1617127487        4.8641960980
  H        46.6634835714       22.2907711368        6.1724799478
  H        47.6301220174       23.5759848114        1.2461622770
  H        14.8723491617        8.5883489627        4.6085553397
  H        50.2870888550       22.7023777996       12.0606931935
  H        49.2691937720       24.5752966395       13.3606719307
  H        45.6109916346       24.1099540343       11.1454557971
  H        46.6530683996       22.2545837679        9.8311864493
  H        47.6080825866       23.5519689222       14.7968592507
  H        40.6417340247       17.1191325146       11.4219062745
  H        48.6872522685       14.0949662893        7.8000402223
  H        10.6813391901       12.4665586125       12.0932488834
  H        11.6896519203       10.5246367638       13.2969458466
  H        15.3936664262       11.1591316217       11.2057235714
  H        14.3651733114       13.0875442551        9.9905173509
  H        13.3760032819       11.6221756533       14.7531139979
  H        47.9301578891       14.2187172732        9.7108910823
  H        47.7801454324       14.3742025737        6.4955724385
  H        49.0837772786       18.5524762186       10.8674086545
  H        10.4163261819       14.1343368913        7.9989040492
  H        24.4840670446        3.0252521963        3.9181905537
  H        25.6294695229        4.8823700776        2.6933216313
  H        23.2610011114        7.7534738371        4.8486588031
  H        22.1336038305        5.8865574504        6.0749559833
  H        23.8181287633        5.7904136547        1.2690175235
  H        36.3579913686       32.1913415979        3.9843730584
  H        35.2093713329       30.3740102887        2.7188184282
  H        37.4658591220       27.4372121296        4.9059688386
  H        38.5945271841       29.2676829539        6.1816247002
  H        36.9797013789       29.4564188020        1.3021581892
  H        25.7522947917        8.6045478107        4.6535440991
  H        36.4526482221       32.2422229665       12.1125878629
  H        35.3401907201       30.4292648532       13.4118370423
  H        37.5448806824       27.4872505820       11.1773622162
  H        38.6310136449       29.3118796750        9.8642870050
  H        37.0195720665       29.4752706659       14.8552773782
  H        46.1094751947       26.5877695160       11.3855902760
  H        44.6681982222       35.1161276942        7.8139869688
  H        24.4343602049        3.0387162362       12.0887711342
  H        25.5666279591        4.8766954949       13.3405626184
  H        23.1688876299        7.7678523619       11.2455989456
  H        22.0484102744        5.9178132953        9.9935912474
  H        23.7929915711        5.7925926068       14.8205207351
  H        44.9536487795       34.3903096503        9.6951634979
  H        44.9016707585       34.2067234440        6.4907061979
  H        40.6660270610       33.2089779970       10.8531155492
  H        23.1504388050        1.9576848555        8.0054897193
  H        25.8073265562       19.6558784650        3.9094724973
  H        23.6407440208       19.6933714154        2.6791611149
  H        22.3543278117       16.2083742300        4.8471769921
  H        24.5302829923       16.1810645117        6.0737716785
  H        23.7242975340       17.6619921426        1.2436614177
  H        35.1753157062       15.4172231642        4.0303491586
  H        37.2937125438       15.3792014504        2.7133835059
  H        38.6777474794       18.8377508145        4.8636309294
  H        36.5508713961       18.8599423153        6.1810854611
  H        37.2256098553       17.3638752774        1.2543578574
  H        20.3572559258       17.9688439125        4.6670785729
  H        35.2017688329       15.4049600371       12.1084342311
  H        37.3534318006       15.3587548926       13.3681100358
  H        38.6828274982       18.8344258704       11.2115635366
  H        36.5251423881       18.8619646111        9.9439766178
  H        37.2380122369       17.3660379235       14.8026539846
  H        35.1661654220       26.6795931826       11.4076690463
  H        28.5006695890       21.0791806828        7.8849134148
  H        25.7500099635       19.6387073523       12.1473822904
  H        23.5670133190       19.6903510651       13.3676866664
  H        22.3017096868       16.1776829531       11.2332782527
  H        24.4853893529       16.1462822818       10.0123432882
  H        23.7029225044       17.6528827110       14.7945024365
  H        29.0083834745       21.7241890176        9.7366418620
  H        29.1856034835       21.7182497343        6.5610774603
  H        32.0308128662       18.5991633887       10.9986466022
  H        27.3940168793       19.0558818514        8.0776940983
  H        14.8489466403       19.6455639254       12.1429730699
  H        17.0118358288       19.6897853458       13.3856421637
  H        18.3041968834       16.1886606118       11.2479867719
  H        16.1370674814       16.1596056868       10.0054382250
  H        16.9218103353       17.6875243025       14.8452674799
  H        46.0861437352       15.4398391608       12.0644869324
  H        43.9615720215       15.3845377763       13.3717982129
  H        42.5550609157       18.8272837136       11.2095462848
  H        44.6791917788       18.8560280403        9.8906709787
  H        44.0239217899       17.3224203758       14.8355205167
  H        20.2913069752       17.9241446209       11.4195646931
  H        46.0398499081       15.3813094031        4.0427398648
  H        43.9082858617       15.3192210069        2.7467659144
  H        42.5250280484       18.7949939230        4.8695898496
  H        44.6628758713       18.8428045296        6.1667637309
  H        44.0111176750       17.2997564599        1.2848252066
  H        46.1994087279       26.6827187003        4.6233707071
  H        52.7413347650       21.0627172011        8.1947134758
  H        14.8800974669       19.6704998006        3.8930437277
  H        17.0804196890       19.7402598034        2.7123429998
  H        18.3339745104       16.2250452786        4.8493643795
  H        16.1356438915       16.1789101561        6.0394572077
  H        16.9423982438       17.7006115189        1.2928934955
  H        52.3229726565       21.6734556295        6.2941033403
  H        52.0136920186       21.7024387474        9.4957121053
  H        49.0679335297       18.6080187257        5.2040989742
  H        13.2477386775       19.0160583336        7.9771335725
  H        29.9508580064       12.4595580885       12.2348473593
  H        28.8870230139       10.5284365356       13.4105885269
  H        25.2546229727       11.1908926206       11.2052171403
  H        26.3368532475       13.1114999236       10.0235813060
  H        27.1845531240       11.6648397215       14.7954074933
  H        30.9914053632       22.7928698639       11.9990237755
  H        31.9995237774       24.6647820406       13.2994021386
  H        35.7037590790       24.1272680292       11.1804143316
  H        34.6764872663       22.2569764833        9.8759248160
  H        33.6556740661       23.5843492681       14.7602207335
  H        25.7080315299        8.5938455616       11.4071369528
  H        30.9013451622       22.6597801374        3.9091061537
  H        31.9046883927       24.5409832592        2.6169971349
  H        35.5303576092       24.1656380950        4.9025460238
  H        34.5049401929       22.2963466061        6.2036806245
  H        33.6039065450       23.5721576244        1.2078747624
  H        40.5994880501       17.0891203172        4.6627487628
  H        32.5065134770       14.1585630139        8.2465600310
  H        29.9002199449       12.5381614688        3.9126715065
  H        28.8773780031       10.6314203673        2.6626974544
  H        25.2213997904       11.1624320651        4.8652379379
  H        26.2674519664       13.0516966096        6.1251122856
  H        27.1818595747       11.6789051774        1.2443580828
  H        33.3098202996       14.2370292365        6.4706487587
  H        33.4090133383       14.3725188779        9.6089550781
  H        32.1152514891       18.4642821713        5.1570514548
  H        30.2036169206       14.1812897567        8.0926068979
  H        16.1181828862        2.9632803867       12.1295157139
  H        14.9530538169        4.8203719820       13.3222533661
  H        17.3664850183        7.6858764581       11.2102952812
  H        18.5151466991        5.8183051817       10.0104827984
  H        16.7534435135        5.7394406312       14.7715213815
  H        44.8277227024       32.1402670160       11.9771590527
  H        45.9370755574       30.3414628337       13.3066408870
  H        43.6826666483       27.3781011902       11.1522759178
  H        42.5999008675       29.1899298076        9.8096058588
  H        44.2301800661       29.4365770215       14.7689645899
  H        14.8513211958        8.5462763604       11.3633049205
  H        44.9000686219       32.2340048813        3.9320561619
  H        46.0250042876       30.4129688502        2.6525491070
  H        43.7631226553       27.4840513868        4.8450463756
  H        42.6452451145       29.3177510080        6.1240415161
  H        44.2683723001       29.4703405378        1.2182647874
  H        34.9995370993       26.6304912022        4.6488503721
  H        36.6051436561       35.1339702138        8.1806363600
  H        16.1435074046        3.0129556639        3.9042899068
  H        14.9739435284        4.8563223187        2.6885673863
  H        17.3963961606        7.7472095487        4.7549281286
  H        18.5434352425        5.8932930545        5.9825602111
  H        16.7645426837        5.7553819875        1.2192805960
  H        36.2786405273       34.4822495850        6.2732595555
  H        36.3806553666       34.2091005547        9.4996197151
  H        40.5786506187       33.2014430513        5.1540940048
  H        17.4709562166        1.9469524714        7.9740472533
  H        29.7313473866       19.6875905265       12.6086572295
  H        28.8447925934       18.8808985989        3.7237154389
  H        31.8870906318       15.8163127262        3.5659133914
  H        32.2060203961       16.3749274824       12.4942343108
  H        28.5831214706       18.7379710486       14.4077303702
  H        28.9091946532       15.1096430674       14.6446181183
  H        32.2610644763       17.5074551626        1.1110366238
  H        18.8526795052        0.8687327825       12.3351629013
  H        40.5280541883       35.2290844327        3.9521433733
  H        42.3234369503       34.4183192619        3.5908225477
  H        22.0875062225        0.6921200130       12.3513863648
  H        11.5968215697       18.7128714260       12.3826138589
  H        52.2646304423       18.4313747015        3.6769686408
  H        49.2547123181       16.4770338189        3.5847724580
  H        10.1503435416       15.7982069932       12.2925609428
  H        50.8499638066       17.6924407064        3.9541754157
  H        10.0461691675       17.3946015747       12.0519141219
  H        20.2138301611        0.0020295198       12.0421053068
  H        39.1836371058       36.1244799199        3.6864701410
 Ni        30.5659499398       17.5976991403        2.7477907215
 Ni        30.6910935321       16.1069403936        0.0771929367
 Ni        29.8043381544       18.3741090654        0.4192328145
 Ni        30.3873247866       17.6039369930       13.4087560298
  O        10.6499579319       14.3651158988        5.4858422230
  O        12.6131584221       14.6575058711        6.5839031464
  O        49.1478959034       16.8458852367        7.9898005946
  O        50.3503046019       20.9357584574        5.6480566001
  O        48.3485790826       20.5933027260        6.6659382818
  O        11.0518006116       17.0538294531        6.5007164551
  O        50.3210450854       20.8816499937       10.4068504789
  O        48.3467637842       20.5867565101        9.3271662985
  O        49.5436705678       18.2483988917       10.0682687821
  O        12.3590939624       18.6246732826        7.9996790346
  O        48.6932565143       14.1485218037        6.7513351359
  O         8.2098656709       14.2104809970        9.3226060135
  O        10.7353603062       14.5067645086       10.6643049172
  O        12.5718134108       14.5827942244        9.3284872198
  O        22.8444695257        2.0426323009        5.4873031521
  O        21.6057446914        3.5923341805        6.5894117251
  O        42.0579336483       34.1371292438        7.9789410787
  O        37.9812405656       33.1364231252        5.5724090525
  O        39.2171894899       31.5749991205        6.6656795343
  O        20.3082706618        1.0393278891        6.5020870716
  O        38.0243336321       33.1848586466       10.4156984038
  O        39.2183925135       31.5829456244        9.3274534150
  O        40.6521529396       33.7691622232       10.0601410560
  O        18.2556778943        1.3758244654        7.9967818240
  O        44.6222104946       35.1005095255        6.7587789961
  O        24.2053372580        0.0000134965        9.3208071742
  O        22.7530070400        2.0577319386       10.5838737387
  O        21.6245813788        3.5962625511        9.3430024723
  O        27.4938589140       18.7522034559        5.4948210124
  O        26.7617275392       16.9357999071        6.6525744081
  O        30.6376846504       19.3499275234        8.0663527301
  O        33.5868271880       16.2738988048        5.6695754894
  O        34.2708944651       18.1663455268        6.7402240704
  O        29.5723664544       17.0431342662        6.5833133181
  O        33.5297528443       16.3417405314       10.5733808227
  O        34.2660904113       18.1652947480        9.4141151711
  O        31.6493635528       18.3102300092       10.1533388627
  O        30.3137792004       15.1462879244        8.0951084045
  O        28.5508543958       21.0310046269        6.8352263150
  O        28.5159657540       20.9532531242        9.4075111071
  O        27.4585166068       18.6779792059       10.6584536232
  O        26.6945770712       16.9277513699        9.4121709216
  O        13.1487837861       18.6929148527       10.5874318545
  O        13.9193020900       16.9162175486        9.4049454558
  O        50.5963338068       19.3502525792        8.0205370038
  O        47.6821541033       16.3272014327       10.4174652662
  O        46.9510683378       18.1759509945        9.3249844942
  O        11.0697283060       17.0155627076        9.4896004607
  O        47.6763772375       16.3355157678        5.6532846441
  O        46.9273359123       18.2358827640        6.6646115538
  O        49.5688128668       18.3177330658        5.9823775958
  O        10.3187132918       15.1001638248        7.9971108299
  O        52.6707993324       21.0278886643        9.2418203213
  O        12.1468549130       20.8911852722        6.6732542409
  O        13.1082449199       18.6135469688        5.3255786097
  O        13.9569958799       16.9869487020        6.6655107610
  O        29.9895412963       14.4462746917       10.7339644443
  O        28.0872093645       14.6530504871        9.4957213836
  O        32.0754373493       16.8488972657        8.0931174716
  O        30.9645501368       20.9484943354       10.4116118141
  O        32.9455633944       20.5962419391        9.3386818801
  O        29.5631245608       17.0723068606        9.5880397791
  O        30.8504253766       20.8812474771        5.6585799858
  O        32.8686725553       20.5834580328        6.6681430397
  O        31.6786164886       18.2498882004        5.9983976369
  O        28.2855740649       18.6710333865        8.0718806253
  O        32.4895553544       14.2176988476        9.3291753997
  O        32.4051566719       14.2163261627        6.8256666141
  O        29.9196171366       14.4380929074        5.4916163283
  O        28.0383361901       14.5890976622        6.7523475430
  O        17.8892141721        1.9665356435       10.6627843633
  O        18.9562317098        3.5270657450        9.4079494793
  O        39.1685184346       34.1385512402        7.9970857810
  O        43.2801588579       33.0588636626       10.3317025558
  O        42.0343811979       31.5064196766        9.2415809170
  O        20.3174696104        1.0365987788        9.4802155634
  O        43.2760872374       33.1825277458        5.5748987245
  O        42.0052281924       31.5840888367        6.5829989414
  O        40.5788774657       33.7747764179        5.9357469428
  O        22.3672395260        1.3845770056        7.9979774683
  O        36.6727771452       35.0996798982        9.2333011264
  O        16.4456072315        0.0641529172        6.6682647083
  O        17.9364885180        2.0433361441        5.3263839343
  O        18.9190652219        3.5930996529        6.6659649029
  O        29.7314824906       18.6875972965        4.0776245757
  O        29.8738212661       18.8956065928       12.0597437898
  O        31.3203944895       16.4070445037        4.0923223700
  O        31.2627741697       16.3410819827       12.2466452755
  O        31.6867803072       16.7824078618        1.4257883628
  O        29.8690146919       14.9554673495       14.7323528429
  O        29.5401979498       18.7664843392       14.5928907048
  O        39.4568084967       35.2438517442        4.0019942322
  O        19.1406758344        0.0042261767       11.9905891386
  O        41.9696207133       35.1726704520        4.0871383689
  O        21.6911581201       -0.0693773735       11.8958183853
  O        51.3648453355       18.6142761459        4.0053705018
  O        10.7510838927       18.7470978742       11.9049325256
  O        50.0792861323       16.4127411003        4.0917667638
  O         9.5244150704       16.4830876521       11.9911850698
 Zr         9.2976078354       16.0527361356        6.1825119869
 Zr        49.8367601255       16.0068047089        9.7463942960
 Zr        22.0731503135        0.0296994548        6.1890016676
 Zr        42.4607349410       35.1534015660        9.8009018022
 Zr        29.5972661359       19.0623763583        6.2589947555
 Zr        29.5673432238       19.1751226178        9.8765993805
 Zr        11.0385775415       19.0519923954        9.8278615593
 Zr        11.0444356000       19.1548136544        6.2509077472
 Zr        31.3217573888       16.0981070349        9.8999416154
 Zr        31.3751568951       16.0080750805        6.2613724168
 Zr        18.6009157023       -0.0018483203        9.7633447345
 Zr        18.5064624568       -0.0080537100        6.2134559009
 Zr        12.3027591467       16.3235893408        7.9903892479
 Zr        48.6172171705       18.8333071019        8.0104004922
 Zr        20.3152279025        2.4733739895        7.9905377103
 Zr        40.6428275498       32.6866519971        7.9780100338
 Zr        28.3393379696       16.3335663733        8.0795935023
 Zr        32.6069540545       18.8229815365        8.0541805539
  H        29.3064559291       17.8336396833        1.7601060713
  H        30.2438457107       15.1963064318       13.8406886774
  H        29.2381169174       19.6005279777        0.9617310427
