     569
 i =      216, E =     -4729.5304982920
  C        11.8586837832       14.0534864973        5.7415741892
  C        12.4561756655       12.8904919642        5.0233617565
  C        11.7045962688       12.1718564668        4.0813864929
  C        12.2809529882       11.1096541184        3.3890196188
  C        13.6214135994       10.7395685728        3.6169901398
  C        14.3544107035       11.4427800258        4.5908607926
  C        13.7815404900       12.5077362641        5.2824144003
  C        14.2609539446        9.6489353527        2.8435711896
  C        14.2562300126        9.6568585237        1.4218660165
  C        13.7430060919       10.7589377966        0.6679305981
  C        49.1267360202       21.2332872839        5.8796915445
  C        48.5499952936       22.4011873040        5.1525994752
  C        49.3000443377       23.0685881680        4.1716648818
  C        48.7330849124       24.1077112577        3.4384738364
  C        47.4025114135       24.5092811500        3.6670500521
  C        46.6715283686       23.8603027513        4.6804697615
  C        47.2339961080       22.8153992285        5.4098094878
  C        46.7723042524       25.5870115688        2.8697959186
  C        46.7612848773       25.5573772956        1.4480379187
  C        47.2611026660       24.4422264221        0.7045552684
  C        14.8601945044        8.5705469315        0.7085785207
  C        14.8917848009        8.5969934755        3.5201980898
  C        49.1130537314       21.2034403815       10.1453497920
  C        48.5276885619       22.3647544204       10.8725319067
  C        49.2668509166       23.0254615195       11.8655034292
  C        48.6905125480       24.0599933624       12.5969765167
  C        47.3601033858       24.4567690940       12.3587048544
  C        46.6396876686       23.8118283352       11.3352049342
  C        47.2132824124       22.7759403552       10.6034285945
  C        46.7216916856       25.5317695974       13.1497081818
  C        46.7334683816       25.5281604245       14.5714098461
  C        47.2487951501       24.4288978886       15.3277949876
  C        40.6323782585       17.1238247995       15.3236591795
  C        40.6536916662       17.1718554790       12.5144912623
  C        11.8828710356       14.0864312035       10.2854103999
  C        12.4720728496       12.9104708262       10.9894564330
  C        11.7146682007       12.1776186940       11.9159384002
  C        12.2811829251       11.0951552865       12.5843954466
  C        13.6198607029       10.7210767183       12.3522722721
  C        14.3576730543       11.4361875225       11.3909940628
  C        13.7922986966       12.5173624365       10.7182719301
  C        14.2534475288        9.6243622679       13.1227276987
  C        14.2522752550        9.6444358937       14.5445727851
  C        13.7423940227       10.7533652361       15.2916732912
  C        22.5110138710        3.2442495552        5.7528008859
  C        23.2237982405        4.3497832387        5.0525771338
  C        24.2171925382        4.0704425546        4.1024774209
  C        24.8420804576        5.1106707587        3.4197283912
  C        24.4892171760        6.4522077600        3.6670429716
  C        23.5242575657        6.7230046885        4.6542030782
  C        22.8945799821        5.6846257154        5.3352612402
  C        25.0929440942        7.5591627582        2.8910011147
  C        25.0622589966        7.5532617025        1.4696730783
  C        24.3568411212        6.5556337319        0.7244227195
  C        38.2986655756       31.9284084658        5.8518539713
  C        37.5576850150       30.8403893144        5.1496101756
  C        36.5911404855       31.1489929226        4.1799333135
  C        35.9600848080       30.1322577626        3.4685911440
  C        36.2804167488       28.7806629324        3.7034269248
  C        37.2170272789       28.4794096498        4.7102981806
  C        37.8518955776       29.4952229742        5.4213369485
  C        35.6662079707       27.6945859267        2.9053413894
  C        35.6963698671       27.7139603788        1.4834233381
  C        36.4092315520       28.7130552337        0.7479654748
  C        25.6860993182        8.6223567306        0.7493267274
  C        25.6927307317        8.6327277666        3.5611399857
  C        38.3278210922       31.9611380010       10.1595270895
  C        37.6022709268       30.8921041410       10.9075738653
  C        36.6731246980       31.2102728729       11.9105799514
  C        36.0523558564       30.1997032745       12.6430326738
  C        36.3441061462       28.8428335487       12.3970726318
  C        37.2538459464       28.5345586415       11.3665200203
  C        37.8772375868       29.5420332725       10.6355291647
  C        35.7186019533       27.7505875339       13.1807009612
  C        35.7222994096       27.7432800911       14.6038297007
  C        36.4213631409       28.7274936972       15.3711025428
  C        46.1355621783       26.6208591075       15.2815336490
  C        46.0877742802       26.5801355842       12.4736355645
  C        22.4595790285        3.2553741791       10.2572549778
  C        23.1508485153        4.3645948527       10.9803986009
  C        24.1508357147        4.0799699777       11.9237232584
  C        24.7758022083        5.1114176833       12.6200167270
  C        24.4207598203        6.4564854515       12.3949639675
  C        23.4439980619        6.7343409274       11.4201282181
  C        22.8141554677        5.7031644390       10.7245359125
  C        25.0494840461        7.5553171470       13.1686440807
  C        25.0410480516        7.5502905203       14.5911450649
  C        24.3448525259        6.5553128793       15.3476420302
  C        26.6100115603       17.8563597622        5.7839049774
  C        25.3060770011       17.9020061992        5.0561711117
  C        25.0356218750       18.9164935280        4.1239546997
  C        23.8240552776       18.9370258361        3.4359306770
  C        22.8451069431       17.9478635958        3.6600476481
  C        23.1110435876       16.9553032161        4.6220121510
  C        24.3253524891       16.9285893328        5.3066166551
  C        21.5725786528       17.9388758655        2.8944646327
  C        21.5753893670       17.9324970079        1.4720028507
  C        22.7829877074       17.8190453385        0.7127914214
  C        34.4358937894       17.1944998008        5.9247875975
  C        35.7302391623       17.1457850569        5.1817835026
  C        35.9358342981       16.1743222916        4.1897237626
  C        37.1150344720       16.1616380609        3.4502380379
  C        38.1215103167       17.1184571968        3.6842450566
  C        37.9194250284       18.0699352708        4.7020124755
  C        36.7366880861       18.0886629693        5.4380127139
  C        39.3756545226       17.1249418181        2.8972622573
  C        39.3724885583       17.1383689316        1.4754347324
  C        38.1660272224       17.2607000536        0.7166130256
  C        20.3298758210       17.9540911045        0.7617540674
  C        20.3473084252       17.9338223019        3.5755065782
  C        34.4746522616       17.2506753505       10.1810908697
  C        35.7769498097       17.1804058983       10.9039576578
  C        35.9997923611       16.1855019284       11.8677524838
  C        37.1844342905       16.1675822993       12.5975312259
  C        38.1766130310       17.1429057137       12.3809994253
  C        37.9622210388       18.1125047223       11.3839915741
  C        36.7742741153       18.1360459969       10.6579313288
  C        39.4225438608       17.1566538637       13.1780518874
  C        39.3963005740       17.1547573834       14.5990775196
  C        38.1772973199       17.2665537273       15.3396227989
  C        35.0806080449       26.6688927863       15.3064422223
  C        35.1174082556       26.6862972462       12.4956597187
  C        26.5760714741       17.8254498503       10.3259051835
  C        25.2609308376       17.8846295271       11.0296835967
  C        24.9961414209       18.9048436841       11.9562517879
  C        23.7780434757       18.9392975917       12.6299869896
  C        22.7963074494       17.9545191795       12.3996462840
  C        23.0556315394       16.9602743571       11.4393291103
  C        24.2739694679       16.9234724258       10.7639674552
  C        21.5318575404       17.9422770223       13.1718472409
  C        21.5542527054       17.9338060233       14.5931915285
  C        22.7722999350       17.8197500696       15.3362487268
  C        14.0473454156       17.8310097449       10.2870595105
  C        15.3534236480       17.8945985662       11.0093162733
  C        15.6078685033       18.9032296284       11.9517732956
  C        16.8174757259       18.9314810020       12.6431834114
  C        17.8070057601       17.9541920376       12.4139973252
  C        17.5575697442       16.9699016605       11.4389799184
  C        16.3471863053       16.9370987681       10.7491233706
  C        19.0757415836       17.9438682273       13.1839219090
  C        19.0727098237       17.9404450314       14.6064717707
  C        17.8648766656       17.8372336524       15.3659366610
  C        46.8061183026       17.2196802011       10.1597910480
  C        45.5182788074       17.1611422453       10.9079102961
  C        45.3112878683       16.1829474617       11.8927217701
  C        44.1311498968       16.1683051659       12.6311014717
  C        43.1291170905       17.1325010828       12.4068100427
  C        43.3337901205       18.0908427356       11.3958459440
  C        44.5142033202       18.1089840723       10.6579733321
  C        41.8764911687       17.1459443277       13.1950697802
  C        41.8802059152       17.1360231605       14.6167876918
  C        43.0885723625       17.2220421388       15.3773435961
  C        20.3185145291       17.9533776730       15.3166326056
  C        20.3008621000       17.9275155085       12.5034764836
  C        46.7849722487       17.2299901804        5.8906566538
  C        45.4806410668       17.1215512499        5.1787125142
  C        45.2611730102       16.1213979354        4.2194315751
  C        44.0725600432       16.0938367666        3.4943658692
  C        43.0743558873       17.0633026406        3.7119111962
  C        43.2833553219       18.0318929368        4.7113191340
  C        44.4731013900       18.0659623747        5.4313056231
  C        41.8294795163       17.0881851940        2.9135440998
  C        41.8564240006       17.1050310748        1.4928641221
  C        43.0772419355       17.2050152333        0.7538570843
  C        46.1533456968       26.6372985943        0.7262914592
  C        46.1623561548       26.6561260075        3.5359318260
  C        14.0445443556       17.8305238567        5.7075658579
  C        15.3641355886       17.9031068130        5.0137691298
  C        15.6383503947       18.9224021357        4.0897146767
  C        16.8665106202       18.9603870829        3.4333890346
  C        17.8479142145       17.9780500242        3.6751120200
  C        17.5798921326       16.9862095067        4.6360372529
  C        16.3538574488       16.9480435162        5.2962420152
  C        19.1157429006       17.9576487195        2.9069649844
  C        19.0938469425       17.9456504737        1.4852558532
  C        17.8751487392       17.8395485659        0.7422478502
  C        28.8075192806       14.0883135064       10.3903853876
  C        28.1912905054       12.9138261713       11.0740231775
  C        28.9174768957       12.1612974348       12.0087187995
  C        28.3156225531       11.0889554737       12.6622070430
  C        26.9738930307       10.7442889065       12.4023836021
  C        26.2696574549       11.4749193310       11.4289570901
  C        26.8691086070       12.5486528896       10.7754681340
  C        26.3032380346        9.6662832099       13.1645759526
  C        26.2916266568        9.6934012507       14.5854264941
  C        26.7979919968       10.8057154085       15.3299213824
  C        32.1043984462       21.2325372515       10.2214808105
  C        32.6892719843       22.4138544495       10.9218840227
  C        31.9448671046       23.1089874961       11.8878949750
  C        32.5174229614       24.1630206137       12.5935986758
  C        33.8518572295       24.5482265349       12.3586224289
  C        34.5760672898       23.8756457314       11.3562742832
  C        34.0045754535       22.8201923833       10.6485729760
  C        34.4893848388       25.6228034626       13.1539093136
  C        34.4808722586       25.5914045673       14.5758542682
  C        33.9676116515       24.4767244378       15.3115998928
  C        25.6798973773        8.6171420554       15.3047936787
  C        25.6655399346        8.6163853104       12.4916248036
  C        32.0790808862       21.2007131009        5.8817982040
  C        32.6473616919       22.3656983768        5.1399092392
  C        31.9079415431       23.0176705435        4.1410420867
  C        32.4763422167       24.0605576404        3.4113083003
  C        33.7986812209       24.4806642143        3.6586809794
  C        34.5194508084       23.8413321149        4.6860693901
  C        33.9558189792       22.7959390888        5.4124973695
  C        34.4359510742       25.5673447963        2.8769048581
  C        34.4528061008       25.5633861670        1.4542008612
  C        33.9538278212       24.4632388526        0.6882485739
  C        40.6198998746       17.1116217493        0.7680964397
  C        40.5983326749       17.1168748921        3.5776358157
  C        28.7416383049       14.0657508444        5.8118704284
  C        28.1315904327       12.9202965496        5.0748356499
  C        28.8653507067       12.2217711324        4.1039882469
  C        28.2817146551       11.1671477007        3.4064108740
  C        26.9487081468       10.7837152802        3.6555668224
  C        26.2322116537       11.4687016921        4.6546974531
  C        26.8138381130       12.5246172844        5.3531862204
  C        26.3042756283        9.6950101212        2.8830404571
  C        26.2926274997        9.7089397654        1.4612395055
  C        26.7956762531       10.8147912289        0.7060388053
  C        18.1354282901        3.1809317409       10.3171643343
  C        17.4061434519        4.2781664708       11.0158486584
  C        16.3902395794        3.9998036531       11.9431515745
  C        15.7424612434        5.0397692173       12.6066237241
  C        16.0945064457        6.3834725997       12.3670864972
  C        17.0841279877        6.6530192208       11.4035874384
  C        17.7332633892        5.6156791484       10.7385691395
  C        15.4701108820        7.4911498849       13.1301116118
  C        15.4854142067        7.4905152183       14.5518197004
  C        16.1870790935        6.4969637321       15.3049695454
  C        42.9458294080       31.8595216282       10.0728378793
  C        43.6461937529       30.7718318023       10.8167726411
  C        44.5916868303       31.0932016923       11.8028657507
  C        45.1973991928       30.0876733421       12.5505458279
  C        44.8710700956       28.7345865106       12.3356689289
  C        43.9453224731       28.4202239477       11.3223853531
  C        43.3364844234       29.4253324631       10.5743078498
  C        45.4886419111       27.6553098214       13.1389008267
  C        45.4928680507       27.6809865612       14.5605987451
  C        44.8058954687       28.6891094677       15.3072242651
  C        14.8563815237        8.5629933202       15.2641446589
  C        14.8747426105        8.5628353756       12.4514900687
  C        42.9464179999       31.9616232042        5.8090562788
  C        43.6916659994       30.8854827021        5.0955866001
  C        44.6562984508       31.1914207528        4.1233320441
  C        45.2778450802       30.1718587194        3.4055905923
  C        44.9540654817       28.8215321809        3.6431723216
  C        44.0204934650       28.5238257682        4.6538595951
  C        43.3922216893       29.5405746142        5.3660642981
  C        45.5630910822       27.7241472016        2.8578850580
  C        45.5334475881       27.7174961826        1.4365828610
  C        44.8271797318       28.7077566374        0.6836183692
  C        35.0667573171       26.6540161261        0.7521897608
  C        35.0536454398       26.6213040827        3.5627045295
  C        18.1485627564        3.2469498704        5.7065327657
  C        17.4300045327        4.3437901218        4.9971934657
  C        16.4146264494        4.0525524430        4.0738077120
  C        15.7663234775        5.0832088396        3.3984437361
  C        16.1212023322        6.4284093304        3.6210098739
  C        17.1128756141        6.7117556318        4.5779603371
  C        17.7605472706        5.6828207170        5.2576994587
  C        15.4906743362        7.5241176707        2.8485903936
  C        15.4965055515        7.5074930599        1.4274588299
  C        16.1933279700        6.5058171960        0.6807816240
  H        10.6725583721       12.4661904090        3.9041618532
  H        11.6947233791       10.5513796550        2.6622743419
  H        15.3913212197       11.1679031669        4.7728663629
  H        14.3508715753       13.0706345229        6.0182010236
  H        13.3759599711       11.6310654604        1.2012093397
  H        50.3227658129       22.7485866093        3.9869477921
  H        49.3195439809       24.6230244953        2.6809097831
  H        45.6419775022       24.1609376203        4.8635388954
  H        46.6629041096       22.2900408869        6.1717630984
  H        47.6294759117       23.5757853247        1.2462515732
  H        14.8721622740        8.5882270965        4.6085049550
  H        50.2868921573       22.7026076825       12.0604176747
  H        49.2688745385       24.5754652831       13.3604896847
  H        45.6102781038       24.1090520174       11.1461407346
  H        46.6524255156       22.2537684769        9.8318930159
  H        47.6073760677       23.5516851760       14.7969185279
  H        40.6605756699       17.1477554788       11.4264715006
  H        48.6870502153       14.0948239481        7.7999722434
  H        10.6813135084       12.4669654263       12.0935713348
  H        11.6894231021       10.5250030989       13.2973116726
  H        15.3929549426       11.1579452054       11.2047580650
  H        14.3645559041       13.0864153991        9.9894305457
  H        13.3754965101       11.6219474423       14.7530364563
  H        47.9301101003       14.2181113663        9.7107317454
  H        47.7800602942       14.3736392021        6.4951774337
  H        49.0836331018       18.5524784513       10.8673479693
  H        10.4160617595       14.1343019788        7.9986482750
  H        24.4771282728        3.0319988804        3.9095279418
  H        25.6125213337        4.8942408879        2.6828547294
  H        23.2447951969        7.7558612937        4.8514453527
  H        22.1271307345        5.8840580755        6.0791348763
  H        23.7941975163        5.8003900089        1.2653961621
  H        36.3591713401       32.1934655104        3.9856028948
  H        35.2109875807       30.3762715734        2.7184964254
  H        37.4725998017       27.4388920251        4.8998420857
  H        38.6002898264       29.2692923267        6.1773221982
  H        36.9789313835       29.4580037510        1.2958308119
  H        25.7304648608        8.6147588110        4.6488491482
  H        36.4567755316       32.2567709172       12.1132250398
  H        35.3262252152       30.4551786086       13.4116528530
  H        37.4938021461       27.4918517934       11.1689795629
  H        38.6001530801       29.3059149702        9.8582933693
  H        37.0014216553       29.4828786672       14.8487303428
  H        46.1091138405       26.5874788443       11.3855974426
  H        44.6683511786       35.1162531725        7.8139311817
  H        24.4288800161        3.0421082293       12.0925404844
  H        25.5550222818        4.8846729847       13.3445448921
  H        23.1590509344        7.7685234617       11.2377980743
  H        22.0439737184        5.9140171126        9.9862365983
  H        23.7723641657        5.8004020318       14.8165211128
  H        44.9539836265       34.3904993118        9.6952628903
  H        44.9020105821       34.2068576556        6.4906633018
  H        40.6659194400       33.2088685825       10.8530287919
  H        23.1501654440        1.9580174217        8.0051301445
  H        25.7836172931       19.6880727892        3.9564874382
  H        23.6186316266       19.7299866232        2.7199167194
  H        22.3670664702       16.1821999005        4.8031788440
  H        24.5417613017       16.1488040591        6.0331699203
  H        23.7228609626       17.6965724267        1.2436595073
  H        35.1531512494       15.4416685739        4.0078544146
  H        37.2730469777       15.4013702714        2.6883877623
  H        38.6889336316       18.8166973007        4.8866707146
  H        36.5637297364       18.8380110216        6.2070299949
  H        37.2257636348       17.3821821194        1.2469589650
  H        20.3528222633       17.9628723756        4.6637129795
  H        35.2269946764       15.4406200209       12.0407957010
  H        37.3554721899       15.3941374467       13.3430632167
  H        38.7234617261       18.8706780843       11.2121305372
  H        36.5874676416       18.9007514562        9.9077373170
  H        37.2453889613       17.3912707094       14.7954723568
  H        35.0934648494       26.7127274739       11.4078287902
  H        28.5104249877       21.0821173089        7.9012320141
  H        25.7578371800       19.6630948300       12.1260026117
  H        23.5697321527       19.7346571247       13.3425700639
  H        22.3055548579       16.1936317708       11.2560659912
  H        24.4904178155       16.1439088400       10.0374041171
  H        23.7035933410       17.6964384427       14.7913265576
  H        28.9857073771       21.7150443743        9.7724578929
  H        29.1797913373       21.7216801693        6.5625188796
  H        32.0942307001       18.4699362813       10.9897340396
  H        27.3970732597       19.0690641290        8.0951515603
  H        14.8468357621       19.6602527204       12.1274136668
  H        17.0107036772       19.7195291827       13.3678924596
  H        18.3111490206       16.2073113128       11.2531196863
  H        16.1429890505       16.1638710704       10.0122590036
  H        16.9231934844       17.7227052565       14.8369764114
  H        46.0920172172       15.4475238727       12.0720928368
  H        43.9700909142       15.4015696025       13.3856989263
  H        42.5679677578       18.8432010857       11.2190471813
  H        44.6889675054       18.8626863827        9.8938080907
  H        44.0313387824       17.3348130976       14.8497011473
  H        20.2962495497       17.9547743374       11.4152675203
  H        46.0380647143       15.3810259595        4.0428310459
  H        43.9049566928       15.3185341143        2.7499250534
  H        42.5169139239       18.7841104623        4.8858924027
  H        44.6565659883       18.8332170633        6.1794199239
  H        44.0114353156       17.3036065452        1.2990629400
  H        46.1991530589       26.6826264733        4.6233801807
  H        52.7410070305       21.0625494065        8.1946824996
  H        14.8793515580       19.6789673071        3.9031349747
  H        17.0786652199       19.7544439356        2.7206633522
  H        18.3286567824       16.2208695726        4.8297530871
  H        16.1318088033       16.1701762199        6.0227779087
  H        16.9411425100       17.7268468394        1.2845225842
  H        52.3219066017       21.6730842773        6.2944985469
  H        52.0127682312       21.7017497064        9.4955352788
  H        49.0669446484       18.6074803698        5.2042797182
  H        13.2473592386       19.0165664503        7.9766939831
  H        29.9524856729       12.4313973844       12.2063757156
  H        28.8790459937       10.5050554655       13.3868592939
  H        25.2331889585       11.2172226649       11.2210349721
  H        26.3232507114       13.1352215231       10.0406269765
  H        27.1621931087       11.6737858051       14.7885671193
  H        30.9186863947       22.8046508912       12.0792857996
  H        31.9346014728       24.7006876067       13.3382815825
  H        35.6080931860       24.1637419465       11.1667860894
  H        34.5697580769       22.2773645155        9.8944533507
  H        33.6106199359       23.6093050257       14.7640464895
  H        25.6953688587        8.5966417909       11.4036372771
  H        30.8923105042       22.6843934488        3.9393721598
  H        31.8945174027       24.5658579576        2.6434858756
  H        35.5433128716       24.1516017514        4.8842788406
  H        34.5204068799       22.2817468593        6.1865979938
  H        33.5860444581       23.5855834970        1.2122284056
  H        40.5900922967       17.0791622256        4.6652843146
  H        32.5060250810       14.1449347700        8.2350098921
  H        29.8949356074       12.5160103685        3.9141022345
  H        28.8581702338       10.6220432575        2.6621494685
  H        25.2008750073       11.1848764797        4.8539151237
  H        26.2574292171       13.0695587113        6.1120314571
  H        27.1567145891       11.6903470965        1.2378715917
  H        33.3056783059       14.2234438269        6.4603858374
  H        33.4113902140       14.4093165472        9.5871739486
  H        32.1322264680       18.5122416743        5.1771955928
  H        30.1901038466       14.1499740994        8.0754645533
  H        16.1180893003        2.9632991333       12.1294128519
  H        14.9528715228        4.8204097971       13.3221359364
  H        17.3667438571        7.6858811771       11.2106776200
  H        18.5154972699        5.8183224389       10.0109305210
  H        16.7536975211        5.7396819831       14.7714500842
  H        44.8278961754       32.1402957744       11.9770766392
  H        45.9372195372       30.3414770332       13.3065172656
  H        43.6827121613       27.3781384248       11.1522265781
  H        42.5999503150       29.1899478433        9.8095751047
  H        44.2305926114       29.4369190756       14.7689257301
  H        14.8509551477        8.5460072050       11.3632717335
  H        44.8998737446       32.2341058496        3.9319411186
  H        46.0248066850       30.4131141441        2.6524177986
  H        43.7634995329       27.4840933009        4.8453784838
  H        42.6456991726       29.3177450589        6.1244796407
  H        44.2687407321       29.4706978500        1.2181972037
  H        35.0131627552       26.6308703602        4.6503107056
  H        36.6052526074       35.1340327888        8.1806284467
  H        16.1433796856        3.0129905513        3.9042553743
  H        14.9738376591        4.8564236220        2.6885198514
  H        17.3966471552        7.7471892335        4.7546153321
  H        18.5436819731        5.8932287528        5.9821958719
  H        16.7648493279        5.7556521033        1.2192347446
  H        36.2788200419       34.4822072331        6.2732468409
  H        36.3812015775       34.2089920230        9.4995340419
  H        40.5793823918       33.2016932178        5.1542136727
  H        17.4708426374        1.9470678824        7.9740296724
  H        30.3537100540       19.5631888637       12.5242357644
  H        28.7039684568       18.9149229978        3.8812376573
  H        30.9378409126       15.5598504104        3.7432873778
  H        31.9487405450       15.7726001974       12.4644856771
  H        28.7461370290       19.0409562748       14.3591235247
  H        30.4459525203       15.1769227255       14.3404420373
  H        31.8423435470       16.3853965714        1.5443792513
  H        18.8540038296        0.8691950099       12.3351389362
  H        40.5281595344       35.2287468322        3.9520711372
  H        42.3238302423       34.4185763138        3.5904891617
  H        22.0875215697        0.6922323909       12.3513324084
  H        11.5968352973       18.7127821416       12.3825447131
  H        52.2648443400       18.4310071616        3.6773080263
  H        49.2551752350       16.4769652102        3.5845497709
  H        10.1495465433       15.7981677239       12.2931098640
  H        50.8498851134       17.6924012490        3.9542706211
  H        10.0457012031       17.3943672281       12.0520271199
  H        20.2153876110        0.0022333564       12.0418515534
  H        39.1838770266       36.1244695197        3.6865427538
 Ni        30.2673378193       17.5768480243        2.8286208083
 Ni        30.3956695596       17.0669439214       -0.2401943103
 Ni        29.2937521955       18.7201046443        0.8347848155
 Ni        30.5283534939       17.3215010388       13.4027903924
  O        10.6499416831       14.3650994563        5.4858436869
  O        12.6131781338       14.6575413597        6.5838962027
  O        49.1479891861       16.8459338847        7.9896939524
  O        50.3502572158       20.9359930174        5.6481361428
  O        48.3485571765       20.5933541762        6.6659378094
  O        11.0516305258       17.0538609326        6.5006784294
  O        50.3208970958       20.8816458967       10.4068587586
  O        48.3466922534       20.5868145627        9.3270748690
  O        49.5436741358       18.2484292612       10.0682732759
  O        12.3590461051       18.6245371092        7.9996670436
  O        48.6932652928       14.1485519746        6.7512893667
  O         8.2098704009       14.2103266708        9.3225087540
  O        10.7353827323       14.5067760710       10.6643083480
  O        12.5718768995       14.5828308100        9.3285054631
  O        22.8444229820        2.0431272453        5.4871800952
  O        21.6050177030        3.5918985894        6.5899874434
  O        42.0579808775       34.1372008023        7.9789243635
  O        37.9813788595       33.1369801661        5.5725988110
  O        39.2174020534       31.5752628827        6.6660343110
  O        20.3083598381        1.0392864428        6.5019682695
  O        38.0246657750       33.1858888694       10.4154317066
  O        39.2171707082       31.5821066434        9.3285678591
  O        40.6521383166       33.7690868524       10.0600846812
  O        18.2555623093        1.3759551350        7.9967512638
  O        44.6222040293       35.1005206947        6.7587561317
  O        24.2054318910        0.0000007230        9.3207709290
  O        22.7527601750        2.0575642032       10.5836047287
  O        21.6238612872        3.5953839991        9.3415672456
  O        27.4876587107       18.7513026786        5.4983413819
  O        26.7569382919       16.9346785475        6.6544898544
  O        30.6325985513       19.3514854489        8.0845160206
  O        33.5843264545       16.2763808485        5.6700460935
  O        34.2693919013       18.1688213284        6.7409452430
  O        29.5666047754       17.0516551834        6.5896424076
  O        33.6195465148       16.3286005880       10.4077113849
  O        34.2990996506       18.2522571804        9.4049732346
  O        31.6576865809       18.3096289036       10.1369749975
  O        30.2948256544       15.1147348577        8.0827008433
  O        28.5497607612       21.0333847102        6.8446046273
  O        28.5223639975       20.9431054266        9.4072485678
  O        27.4677390213       18.6732207966       10.6640494958
  O        26.6934195326       16.9291737796        9.4146861095
  O        13.1484845449       18.6933523857       10.5871903329
  O        13.9199372833       16.9164409132        9.4054880475
  O        50.5961541093       19.3502535664        8.0204563090
  O        47.6837361433       16.3269144576       10.4171182024
  O        46.9521125376       18.1758886483        9.3244486060
  O        11.0697104140       17.0155831559        9.4896209418
  O        47.6763857646       16.3354545188        5.6533311247
  O        46.9273636856       18.2357170801        6.6645943969
  O        49.5686688358       18.3177062264        5.9822340751
  O        10.3187406751       15.1001539802        7.9970544455
  O        52.6707230114       21.0279027186        9.2418449414
  O        12.1468531738       20.8911782038        6.6731998803
  O        13.1079631223       18.6137261183        5.3255776456
  O        13.9573907357       16.9869575498        6.6651444927
  O        29.9894736245       14.4380895486       10.7287291845
  O        28.0857475090       14.6539783486        9.4951625122
  O        32.0800471219       16.8599287924        8.0747257326
  O        30.9215073098       20.8733458945       10.5774996614
  O        32.8264197391       20.6627838110        9.3370862470
  O        29.5629017799       17.0695853571        9.5823038853
  O        30.8538143868       20.8854140181        5.6620424754
  O        32.8706658732       20.5835968249        6.6700685579
  O        31.6763770098       18.2540851402        5.9949824712
  O        28.2835672279       18.6728680125        8.0805740192
  O        32.4930769442       14.2129615637        9.3242495186
  O        32.4054441932       14.2127875045        6.8266906571
  O        29.9173148909       14.4372958897        5.4841894808
  O        28.0381049176       14.5868860517        6.7471395100
  O        17.8891776350        1.9665859172       10.6628832159
  O        18.9561428515        3.5271349269        9.4079781544
  O        39.1685392771       34.1384855194        7.9971809729
  O        43.2801751419       33.0589123113       10.3316811375
  O        42.0343183872       31.5064413939        9.2416600295
  O        20.3175988323        1.0365459887        9.4801941924
  O        43.2760652231       33.1825746595        5.5749199458
  O        42.0051757714       31.5841500264        6.5830363374
  O        40.5789243225       33.7747870508        5.9360382374
  O        22.3672737159        1.3844760609        7.9978974099
  O        36.6727379849       35.0997594892        9.2332877705
  O        16.4455936505        0.0641989539        6.6682527713
  O        17.9364506336        2.0433258545        5.3263355093
  O        18.9188819457        3.5931497232        6.6659044743
  O        29.6537835215       18.8350167547        4.0902183197
  O        29.8647861610       18.7670125747       12.2473626053
  O        31.2149959507       16.4032110590        4.1501942299
  O        31.3991133416       16.4077389818       11.9719487662
  O        30.8688434326       16.4062972640        1.4835736643
  O        31.0937823290       15.8977648199       14.4811774068
  O        28.3057108942       19.4213506101       15.1615393636
  O        39.4568048153       35.2437443676        4.0020146619
  O        19.1417760662        0.0046292038       11.9905417162
  O        41.9693500654       35.1724125893        4.0871048761
  O        21.6912025061       -0.0693596184       11.8958708448
  O        51.3650673471       18.6142826309        4.0054102007
  O        10.7511028503       18.7472338057       11.9049337904
  O        50.0796687032       16.4128271203        4.0917436718
  O         9.5239427473       16.4831066155       11.9912597028
 Zr         9.2966172841       16.0526839806        6.1823841591
 Zr        49.8360524681       16.0066189196        9.7463813110
 Zr        22.0734409796        0.0299612068        6.1888922282
 Zr        42.4610551124       35.1535600613        9.8008450827
 Zr        29.5980731003       19.0717180054        6.2899944452
 Zr        29.5656684572       19.1446351318        9.9087839474
 Zr        11.0376479779       19.0519310738        9.8276835621
 Zr        11.0435056512       19.1548186671        6.2511487302
 Zr        31.3412733991       16.0850526344        9.8545799590
 Zr        31.3781722369       16.0105023773        6.2747988189
 Zr        18.6012718863       -0.0012999545        9.7634858753
 Zr        18.5067204447       -0.0077065466        6.2136200597
 Zr        12.3016961370       16.3234265746        7.9904279822
 Zr        48.6161182186       18.8330653178        8.0101517702
 Zr        20.3151066456        2.4734656625        7.9903427388
 Zr        40.6432295980       32.6869876940        7.9784251908
 Zr        28.3407538942       16.3273031637        8.0817429722
 Zr        32.6123137602       18.8350259945        8.0624997783
  H        28.9167116061       17.7610200056        1.9652776087
  H        27.4136453198       19.0306917449       15.1562786859
  H        30.4691856285       18.2405393672       14.7012674434
