     571
 i =      181, E =     -4761.6421310045
  C        11.8589039818       14.0535214908        5.7415075791
  C        12.4564242987       12.8906196886        5.0232261561
  C        11.7046578500       12.1715547784        4.0817238585
  C        12.2810443394       11.1093362973        3.3894112329
  C        13.6216934686       10.7397065222        3.6170127506
  C        14.3549553409       11.4434599484        4.5902780714
  C        13.7820602781       12.5084573938        5.2817599806
  C        14.2612193098        9.6490463072        2.8436062404
  C        14.2563967175        9.6569060196        1.4219076466
  C        13.7431117288       10.7589860882        0.6680179620
  C        49.1267866955       21.2333153902        5.8797116052
  C        48.5499814136       22.4013028591        5.1526169960
  C        49.3000155389       23.0686003683        4.1716244946
  C        48.7330777749       24.1077371268        3.4384089465
  C        47.4025578638       24.5093839286        3.6670926976
  C        46.6716259410       23.8605639041        4.6806485397
  C        47.2340840484       22.8156540819        5.4099901439
  C        46.7722821030       25.5870694461        2.8698330662
  C        46.7610726205       25.5573485696        1.4480811978
  C        47.2608898259       24.4421855459        0.7046144982
  C        14.8603761306        8.5706042975        0.7086298640
  C        14.8921603905        8.5971898588        3.5202457595
  C        49.1132197543       21.2034400812       10.1454365464
  C        48.5278162695       22.3648636170       10.8726291132
  C        49.2669909658       23.0255275131       11.8655949263
  C        48.6906100211       24.0600612770       12.5970751651
  C        47.3602099272       24.4568266510       12.3587797977
  C        46.6398531973       23.8119423918       11.3352048915
  C        47.2134529602       22.7760535357       10.6034275760
  C        46.7217040001       25.5318116464       13.1497576596
  C        46.7332385676       25.5281026420       14.5714602427
  C        47.2485967570       24.4288557883       15.3278509587
  C        40.6364661406       17.1667336332       15.3231577601
  C        40.6562112769       17.1897064424       12.5143891614
  C        11.8830039474       14.0865619236       10.2854968976
  C        12.4723825443       12.9108205299       10.9897614843
  C        11.7148547102       12.1774578292       11.9157357718
  C        12.2814860626       11.0950124359       12.5841162561
  C        13.6203861854       10.7214851529       12.3524443413
  C        14.3584179536       11.4372428747       11.3918369612
  C        13.7929368418       12.5183932173       10.7191593797
  C        14.2539976586        9.6247250499       13.1228394811
  C        14.2525622452        9.6445924309       14.5446818838
  C        13.7425862928       10.7534893229       15.2917630296
  C        22.5112035249        3.2456818472        5.7533716051
  C        23.2217402970        4.3545703113        5.0557837251
  C        24.2188092768        4.0826885000        4.1073270295
  C        24.8390504831        5.1279282447        3.4275300879
  C        24.4777668425        6.4672923759        3.6755672852
  C        23.5096865158        6.7305736521        4.6616476201
  C        22.8849632828        5.6874430287        5.3398743477
  C        25.0737985070        7.5794086595        2.9005075471
  C        25.0442437878        7.5720732100        1.4791047603
  C        24.3457003972        6.5694526626        0.7339706903
  C        38.2989040746       31.9277165803        5.8508743519
  C        37.5587287867       30.8385233815        5.1471511595
  C        36.5923001725       31.1456413019        4.1767944450
  C        35.9621014910       30.1281945917        3.4650608079
  C        36.2826986549       28.7766243471        3.6999621110
  C        37.2192796378       28.4767571888        4.7073607091
  C        37.8532812455       29.4933324222        5.4186660343
  C        35.6716969342       27.6891416879        2.8997970530
  C        35.7112158792       27.7057377315        1.4777623024
  C        36.4236181525       28.7072427336        0.7451238146
  C        25.6612439918        8.6447973648        0.7584937157
  C        25.6638003382        8.6587750746        3.5708565342
  C        38.3303305341       31.9620452477       10.1588683806
  C        37.6119624534       30.8894619790       10.9068849764
  C        36.6779427936       31.2001607054       11.9071202795
  C        36.0669483706       30.1836840933       12.6392567758
  C        36.3754952875       28.8304908529       12.3948379179
  C        37.2899462656       28.5295527132       11.3667992892
  C        37.9027083818       29.5426083910       10.6358738697
  C        35.7606651698       27.7324844349       13.1763997037
  C        35.7567005774       27.7279529534       14.5988039748
  C        36.4436615335       28.7188279422       15.3683721183
  C        46.1352754690       26.6207782712       15.2815773787
  C        46.0878709479       26.5802293883       12.4736865082
  C        22.4597188630        3.2571544846       10.2595399644
  C        23.1488741222        4.3677100714       10.9847187075
  C        24.1447994566        4.0858157039       11.9334879751
  C        24.7669705897        5.1187532137       12.6309807279
  C        24.4143274432        6.4641560724       12.4024473701
  C        23.4416557371        6.7390501295       11.4222701961
  C        22.8143797625        5.7065029520       10.7257893356
  C        25.0395878890        7.5660607373       13.1767526099
  C        25.0271300001        7.5645112093       14.5997519783
  C        24.3349170102        6.5674020605       15.3571343593
  C        26.6247399230       17.8639492769        5.7473466663
  C        25.3179719095       17.9322463726        5.0281999640
  C        25.0634274065       18.9272521122        4.0715907211
  C        23.8443221321       18.9581669820        3.3965771498
  C        22.8463861985       17.9961895555        3.6543427422
  C        23.0972793320       17.0262838111        4.6433345926
  C        24.3156502566       16.9916882429        5.3181066609
  C        21.5726291685       17.9808729853        2.8924964081
  C        21.5734811691       17.9514718161        1.4702456848
  C        22.7793836061       17.8227367370        0.7112551208
  C        34.4419211054       17.1917092228        5.9205072737
  C        35.7354315920       17.1482229101        5.1774572349
  C        35.9389649367       16.1928123214        4.1696382885
  C        37.1180707765       16.1903484419        3.4300345320
  C        38.1268698458       17.1405501091        3.6813141012
  C        37.9271526825       18.0746891480        4.7153835020
  C        36.7440680708       18.0842037426        5.4502814994
  C        39.3809386567       17.1565954759        2.8959581790
  C        39.3776934810       17.1815853740        1.4747186711
  C        38.1719112238       17.3131307670        0.7164672599
  C        20.3270599379       17.9627029384        0.7617644419
  C        20.3481047641       17.9804053382        3.5752282281
  C        34.4785938286       17.2481347917       10.1789941872
  C        35.7809491516       17.1823417690       10.9044679580
  C        35.9933198638       16.2083967344       11.8912882568
  C        37.1783387542       16.1977372646       12.6214195557
  C        38.1787133585       17.1597756486       12.3826068865
  C        37.9724043578       18.1089260158       11.3644364398
  C        36.7847490675       18.1252989288       10.6381024455
  C        39.4249832957       17.1825070102       13.1782072503
  C        39.4004469856       17.1959234340       14.5989257544
  C        38.1826164504       17.3183237308       15.3396882849
  C        35.1184242835       26.6502602187       15.2980684739
  C        35.1761401301       26.6610821229       12.4888255972
  C        26.5707909958       17.8297238897       10.3234083069
  C        25.2554633007       17.8771207470       11.0282424134
  C        24.9959140197       18.8802756660       11.9741536854
  C        23.7774629531       18.9097159162       12.6464388884
  C        22.7904977765       17.9349563253       12.3980498255
  C        23.0452222674       16.9559399311       11.4205720095
  C        24.2638975784       16.9251934523       10.7453051391
  C        21.5268995896       17.9194884878       13.1707512791
  C        21.5497197294       17.9174487054       14.5923489800
  C        22.7677922457       17.8056694596       15.3351035528
  C        14.0463258086       17.8296949538       10.2876980704
  C        15.3507625736       17.8893357197       11.0111663978
  C        15.6066226760       18.8955260346       11.9557326906
  C        16.8157386277       18.9191472776       12.6477519043
  C        17.8025433025       17.9394703265       12.4170473038
  C        17.5516069572       16.9577123398       11.4399710096
  C        16.3419239205       16.9295334238       10.7493817510
  C        19.0709785857       17.9255611670       13.1859746515
  C        19.0684994999       17.9288340668       14.6083547919
  C        17.8613857042       17.8310208783       15.3696289668
  C        46.8070211803       17.2207529882       10.1598267370
  C        45.5194682603       17.1665810428       10.9086164092
  C        45.3121601057       16.1954334733       11.9000744003
  C        44.1322558184       16.1875846113       12.6390032756
  C        43.1313623123       17.1509534335       12.4070006383
  C        43.3360319387       18.1017124797       11.3891969003
  C        44.5165271634       18.1136822489       10.6517631269
  C        41.8790468186       17.1719817648       13.1948863846
  C        41.8839445707       17.1744893751       14.6163346902
  C        43.0925917171       17.2647005442       15.3760357000
  C        20.3147917358       17.9455643670       15.3168591480
  C        20.2950774330       17.9041548141       12.5040443333
  C        46.7865253503       17.2311687549        5.8906200276
  C        45.4825906909       17.1279087736        5.1776557508
  C        45.2626584444       16.1354118523        4.2108893254
  C        44.0745088259       16.1157705915        3.4849489026
  C        43.0783839421       17.0854904321        3.7098623924
  C        43.2876720344       18.0459059668        4.7167740794
  C        44.4769473775       18.0722768982        5.4373103145
  C        41.8340349849       17.1185786513        2.9118602014
  C        41.8611510450       17.1451831765        1.4915070843
  C        43.0818035642       17.2483524880        0.7526284052
  C        46.1530838904       26.6372406637        0.7263370269
  C        46.1625518802       26.6562994677        3.5359655857
  C        14.0453531486       17.8337012850        5.7089419945
  C        15.3657108970       17.9146776705        5.0181293294
  C        15.6315460623       18.9324967313        4.0897440870
  C        16.8589884683       18.9780506181        3.4326524751
  C        17.8487727353       18.0052402427        3.6783873851
  C        17.5897474874       17.0163961252        4.6450637942
  C        16.3640552927       16.9701384270        5.3055565375
  C        19.1156493409       17.9887458997        2.9083403564
  C        19.0917936431       17.9610046324        1.4867418697
  C        17.8726656611       17.8452761218        0.7459458508
  C        28.8084276460       14.0940197738       10.3922545685
  C        28.1890466141       12.9230988305       11.0806405393
  C        28.9030859417       12.1869266843       12.0376227303
  C        28.2967960912       11.1168271929       12.6911142264
  C        26.9624445392       10.7583382256       12.4111621217
  C        26.2706845719       11.4744395014       11.4179174529
  C        26.8744702622       12.5452225253       10.7634453922
  C        26.2874786985        9.6820934316       13.1726602908
  C        26.2668068595        9.7142775886       14.5936846139
  C        26.7621013664       10.8318517886       15.3381576610
  C        32.1830714706       21.2398751199       10.1364553561
  C        32.7799471945       22.4052142504       10.8588741346
  C        32.0267628692       23.0860676273       11.8278713097
  C        32.5939375028       24.1271735902       12.5569217523
  C        33.9304943830       24.5149433070       12.3397075189
  C        34.6670245969       23.8509334526       11.3406249733
  C        34.1016130662       22.8050302895       10.6124325411
  C        34.5542781099       25.5919568747       13.1432227729
  C        34.5329840740       25.5663662513       14.5648898310
  C        34.0163765024       24.4524491730       15.2992245489
  C        25.6583632692        8.6364684268       15.3134605453
  C        25.6562363414        8.6274618575       12.4999660761
  C        32.0966761818       21.1666150736        5.8359058076
  C        32.6598346364       22.3361245797        5.0956776717
  C        31.9164307888       23.0037536802        4.1093944759
  C        32.4838102783       24.0544639273        3.3895623843
  C        33.8088833162       24.4676156175        3.6365891297
  C        34.5323801975       23.8140700409        4.6521498505
  C        33.9696682392       22.7610489380        5.3679285064
  C        34.4467350955       25.5595287238        2.8636380105
  C        34.4755487703       25.5510430298        1.4420571414
  C        33.9875269363       24.4462332556        0.6755176347
  C        40.6245923822       17.1555130479        0.7671868945
  C        40.6033516154       17.1421081203        3.5765066976
  C        28.7177203909       14.0968208162        5.8242964473
  C        28.0935837748       12.9540239631        5.0902610821
  C        28.8247473409       12.2579309824        4.1150967695
  C        28.2405647121       11.2047514243        3.4158555895
  C        26.9081303246       10.8189148359        3.6659670484
  C        26.1932999802       11.5029418659        4.6672941782
  C        26.7760567075       12.5582041058        5.3682695039
  C        26.2679478490        9.7260621005        2.8933985833
  C        26.2583708933        9.7366858715        1.4710384299
  C        26.7555016398       10.8441682652        0.7143898822
  C        18.1354009331        3.1811381385       10.3172302058
  C        17.4062829960        4.2783286353       11.0158869931
  C        16.3902581050        4.0000603200       11.9431112401
  C        15.7426217231        5.0401141826       12.6065492974
  C        16.0949153813        6.3837879968       12.3671207934
  C        17.0847380421        6.6532130358       11.4037883179
  C        17.7337737435        5.6158118044       10.7387768242
  C        15.4705411917        7.4914768098       13.1301316787
  C        15.4856780423        7.4906755115       14.5518369077
  C        16.1873026155        6.4970920819       15.3049825956
  C        42.9458631380       31.8596655935       10.0728195448
  C        43.6462491504       30.7719521858       10.8167584623
  C        44.5914234021       31.0932917688       11.8031587724
  C        45.1971510550       30.0877661124       12.5508412749
  C        44.8710840725       28.7346533404       12.3357126720
  C        43.9456855938       28.4202895953       11.3220990868
  C        43.3368825126       29.4254231323       10.5740389857
  C        45.4885954328       27.6553406945       13.1389331119
  C        45.4926678354       27.6809495684       14.5606280434
  C        44.8056498456       28.6890357054       15.3072662674
  C        14.8566415569        8.5631130038       15.2642067543
  C        14.8753270184        8.5632691964       12.4515286462
  C        42.9464985201       31.9618109386        5.8089737129
  C        43.6918060125       30.8856870204        5.0955588465
  C        44.6560322730       31.1916351704        4.1229086893
  C        45.2776307457       30.1720551980        3.4052344984
  C        44.9542579506       28.8216979804        3.6432016647
  C        44.0212960512       28.5240165495        4.6544697025
  C        43.3929691821       29.5407616092        5.3666129649
  C        45.5631607104       27.7242598248        2.8579359418
  C        45.5332802417       27.7174904670        1.4366392331
  C        44.8269742896       28.7077109303        0.6836558064
  C        35.0921044155       26.6412652007        0.7433423234
  C        35.0564732955       26.6151203142        3.5540512115
  C        18.1486208584        3.2470877043        5.7065788911
  C        17.4302016418        4.3438751139        4.9972157079
  C        16.4147607205        4.0527032688        4.0738546019
  C        15.7665208424        5.0833886386        3.3985072504
  C        16.1215020567        6.4285799263        3.6210248451
  C        17.1132709322        6.7118748853        4.5779006360
  C        17.7608803588        5.6829078099        5.2576404003
  C        15.4909450973        7.5242652664        2.8486188974
  C        15.4967188470        7.5075647665        1.4274923355
  C        16.1935276173        6.5058946064        0.6807946103
  H        10.6724659321       12.4655503046        3.9048441159
  H        11.6947204186       10.5507025173        2.6630172702
  H        15.3920755772       11.1690675356        4.7718301517
  H        14.3516294838       13.0718735717        6.0169724014
  H        13.3760774293       11.6310925620        1.2013417020
  H        50.3227201485       22.7485318894        3.9868898828
  H        49.3195599893       24.6230055063        2.6808257042
  H        45.6421709154       24.1614158868        4.8638821499
  H        46.6631589189       22.2903853999        6.1721314817
  H        47.6294457546       23.5758346351        1.2463353585
  H        14.8727150226        8.5885504289        4.6085570863
  H        50.2870562529       22.7027056413       12.0604825394
  H        49.2689903535       24.5755299689       13.3605824416
  H        45.6104784666       24.1092339876       11.1460708273
  H        46.6527380077       22.2538975310        9.8317810202
  H        47.6073733718       23.5517337644       14.7969503464
  H        40.6630287963       17.1526092437       11.4267562621
  H        48.6870831269       14.0949717526        7.8000333596
  H        10.6813130971       12.4663549882       12.0929893487
  H        11.6896730872       10.5244652558       13.2966681765
  H        15.3939613394       11.1596233009       11.2061142642
  H        14.3653794941       13.0879288358        9.9908411551
  H        13.3757509142       11.6221013103       14.7531275452
  H        47.9302291278       14.2182102836        9.7109495667
  H        47.7801060647       14.3735513780        6.4952079484
  H        49.0844686091       18.5526435131       10.8676774882
  H        10.4162022520       14.1342135717        7.9987808046
  H        24.4854141016        3.0461955583        3.9128152064
  H        25.6120870856        4.9169591058        2.6917828847
  H        23.2234647429        7.7613664506        4.8600138067
  H        22.1150303818        5.8815996763        6.0825271945
  H        23.7867927978        5.8115349517        1.2750479278
  H        36.3595765111       32.1898513123        3.9817730270
  H        35.2136823976       30.3722354770        2.7142665030
  H        37.4761807317       27.4366349632        4.8973523438
  H        38.6015597323       29.2675841566        6.1748570685
  H        36.9854215222       29.4565996054        1.2950436578
  H        25.7004197653        8.6415509921        4.6586323311
  H        36.4504133545       32.2447021848       12.1076147255
  H        35.3359391983       30.4310295255       13.4058876368
  H        37.5413697519       27.4891159532       11.1717739574
  H        38.6298161814       29.3147004162        9.8602495141
  H        37.0216142180       29.4770514671       14.8477038657
  H        46.1095068972       26.5876895036       11.3856546053
  H        44.6684988062       35.1163901044        7.8138722579
  H        24.4226326287        3.0484827046       12.1060880215
  H        25.5429376881        4.8922186785       13.3590760078
  H        23.1573479928        7.7727176939       11.2359353468
  H        22.0476588874        5.9171271445        9.9837947495
  H        23.7668442498        5.8086988755       14.8266824263
  H        44.9545342887       34.3911238478        9.6957094336
  H        44.9023049264       34.2071097844        6.4905452703
  H        40.6669383316       33.2096467152       10.8532951789
  H        23.1500542438        1.9587250035        8.0056208166
  H        25.8291983408       19.6737827495        3.8728557131
  H        23.6507379990       19.7357228908        2.6607147155
  H        22.3383221760       16.2748027409        4.8512475436
  H        24.5209257206       16.2294130580        6.0660395828
  H        23.7200083694       17.7047196941        1.2411438379
  H        35.1570116773       15.4625039153        3.9758950588
  H        37.2751399841       15.4421349927        2.6561628268
  H        38.6992157398       18.8152341144        4.9139486748
  H        36.5722200956       18.8201225898        6.2324009915
  H        37.2332420825       17.4382074647        1.2484768975
  H        20.3546560862       18.0237785419        4.6629713805
  H        35.2101869221       15.4780188089       12.0812759830
  H        37.3436353507       15.4394493820       13.3836870799
  H        38.7394235745       18.8574001913       11.1764447952
  H        36.6017442032       18.8752833048        9.8722070160
  H        37.2522004644       17.4462251362       14.7939912793
  H        35.1589455044       26.6860360119       11.4008949098
  H        28.5125209102       21.0817393833        7.8930684026
  H        25.7626847615       19.6273165029       12.1663174312
  H        23.5757120336       19.6923496995       13.3745742055
  H        22.2917873911       16.1959905804       11.2236375432
  H        24.4767534116       16.1577455410       10.0049085362
  H        23.6993913917       17.6754087545       14.7925530988
  H        28.9892989306       21.7269423449        9.7514034148
  H        29.1472972575       21.7486746192        6.5505316073
  H        32.0997288360       18.5718176324       10.9672484422
  H        27.4044486635       19.0716985278        8.0691012931
  H        14.8474070285       19.6541820814       12.1320864070
  H        17.0112150540       19.7052969322       13.3738712316
  H        18.3036344523       16.1938037673       11.2532896415
  H        16.1359295964       16.1585078942       10.0107786477
  H        16.9193236371       17.7112372320       14.8424997563
  H        46.0924726678       15.4607439698       12.0843516528
  H        43.9704448836       15.4269886434       13.3996211806
  H        42.5704589131       18.8530145278       11.2069908741
  H        44.6925934834       18.8617573164        9.8824352496
  H        44.0348965610       17.3777697618       14.8475715348
  H        20.2891332222       17.9295219063       11.4158074682
  H        46.0385828371       15.3951874234        4.0294082297
  H        43.9057173981       15.3469401063        2.7341031308
  H        42.5222456279       18.7978904730        4.8966061479
  H        44.6620016250       18.8333199444        6.1912890903
  H        44.0158706498       17.3476622049        1.2979454149
  H        46.1996701932       26.6829438590        4.6233996337
  H        52.7411342819       21.0626075309        8.1946595393
  H        14.8660882493       19.6816573252        3.8998884092
  H        17.0638652909       19.7702807594        2.7157686608
  H        18.3454824994       16.2588931820        4.8424891178
  H        16.1491412231       16.1936455807        6.0357379467
  H        16.9391953362       17.7362634093        1.2898461561
  H        52.3224640484       21.6734352551        6.2944515375
  H        52.0132954777       21.7021185978        9.4956335765
  H        49.0677829104       18.6077786567        5.2040448402
  H        13.2475726087       19.0163256495        7.9773263749
  H        29.9312385758       12.4681432008       12.2546501261
  H        28.8520884180       10.5450675027       13.4315388663
  H        25.2398021630       11.2077778121       11.1940385601
  H        26.3376200388       13.1198580377       10.0126687113
  H        27.1221876260       11.7007939889       14.7956715614
  H        31.0005362893       22.7722350357       12.0039976950
  H        32.0035999711       24.6554158281       13.3025202913
  H        35.7018371133       24.1394847412       11.1675601295
  H        34.6756910551       22.2672818696        9.8612148650
  H        33.6666476829       23.5837197591       14.7488832167
  H        25.6921532296        8.6043247245       11.4122032236
  H        30.8917889100       22.6880102983        3.9221739799
  H        31.8993125139       24.5757293750        2.6342766442
  H        35.5573892117       24.1208826559        4.8500062057
  H        34.5344969856       22.2369926069        6.1353058684
  H        33.6173229154       23.5712317783        1.2016859481
  H        40.5954884645       17.0938009822        4.6637192295
  H        32.5085646497       14.1469711729        8.2602137531
  H        29.8523314003       12.5585151427        3.9238890052
  H        28.8164480887       10.6619511168        2.6693870535
  H        25.1623757196       11.2186316256        4.8682475600
  H        26.2196479806       13.1007783369        6.1290477453
  H        27.1090647809       11.7227661329        1.2461621965
  H        33.3102563688       14.2200912154        6.4652959020
  H        33.4098434687       14.4074851971        9.6017523423
  H        32.1450542530       18.4629058380        5.1036933168
  H        30.2102724836       14.1924370303        8.0773718083
  H        16.1179049421        2.9635980290       12.1292848444
  H        14.9529203023        4.8208774121       13.3219709628
  H        17.3676209343        7.6860323631       11.2110293417
  H        18.5162250619        5.8184370328       10.0113677966
  H        16.7540157191        5.7398764765       14.7714729327
  H        44.8274781166       32.1403937580       11.9775605809
  H        45.9367930329       30.3416043590       13.3069765805
  H        43.6834221505       27.3781677303       11.1516485927
  H        42.6007237556       29.1900447739        9.8089475283
  H        44.2304454322       29.4369180222       14.7689705560
  H        14.8517878775        8.5466461425       11.3633021286
  H        44.8993038607       32.2343334345        3.9311861298
  H        46.0242864535       30.4133454806        2.6517682870
  H        43.7648589894       27.4842400932        4.8464711561
  H        42.6469345529       29.3179586441        6.1255103536
  H        44.2686487743       29.4707426618        1.2182122017
  H        35.0088356711       26.6248038345        4.6414154629
  H        36.6053699796       35.1341281671        8.1806558651
  H        16.1433980486        3.0131731189        3.9043316801
  H        14.9739838543        4.8566785746        2.6886194779
  H        17.3971837188        7.7472842589        4.7544936395
  H        18.5440963289        5.8933497814        5.9820395926
  H        16.7651293900        5.7557778715        1.2192235020
  H        36.2788629464       34.4824137923        6.2729344257
  H        36.3813808145       34.2089258768        9.4993084450
  H        40.5800070537       33.2025073699        5.1535824114
  H        17.4711303059        1.9475403966        7.9740204192
  H        28.9954960046       19.3617134003       12.4750654199
  H        28.8108916217       18.5340762009        3.7329566822
  H        31.9522412770       15.6009389248        3.6167748754
  H        31.2866710113       15.5925385185       12.5142984526
  H        28.0895063337       17.8542290398       14.7353428935
  H        29.4832524345       15.2822557949       14.5513936432
  H        30.8363238375       20.7612172385        1.6423742882
  H        32.9026128977       17.3266485794        1.3746956423
  H        32.2661243853       18.5809573490       14.5651716698
  H        18.8540023022        0.8691357859       12.3352806539
  H        40.5280908581       35.2287811605        3.9519306467
  H        42.3253162842       34.4200602430        3.5898452301
  H        22.0876178467        0.6922774718       12.3514183782
  H        11.5967825067       18.7127454107       12.3826047413
  H        52.2647766221       18.4310199233        3.6772578599
  H        49.2551141592       16.4766082625        3.5844767566
  H        10.1496222179       15.7982456246       12.2930162371
  H        50.8498917050       17.6924584831        3.9541421432
  H        10.0458539203       17.3944931396       12.0519430995
  H        20.2155437591        0.0024069150       12.0418232273
  H        39.1839039607       36.1245785944        3.6867168299
 Ni        30.8580271060       17.5275471183        2.7496535788
 Ni        31.1144607497       16.5459935971       -0.0805933899
 Ni        29.9671546410       18.9741670589       -0.1621862247
 Ni        30.1818203128       17.5233530304       13.2382056235
  O        10.6500627409       14.3651097681        5.4858377665
  O        12.6132406090       14.6575284283        6.5839171935
  O        49.1481791140       16.8458233921        7.9897153047
  O        50.3501932623       20.9361393735        5.6480821205
  O        48.3485671439       20.5933888473        6.6659381308
  O        11.0517596749       17.0537346599        6.5007308878
  O        50.3209849881       20.8817448871       10.4069062576
  O        48.3467680337       20.5868777310        9.3271314645
  O        49.5438028212       18.2484256910       10.0682790349
  O        12.3590746379       18.6246167512        7.9996359153
  O        48.6932824272       14.1484713398        6.7513081189
  O         8.2099019902       14.2103607663        9.3225647899
  O        10.7353624484       14.5067630740       10.6643306469
  O        12.5718676648       14.5827746105        9.3284919530
  O        22.8447614927        2.0445753661        5.4870175930
  O        21.6046643383        3.5918253256        6.5908224789
  O        42.0582072843       34.1375448984        7.9789233703
  O        37.9812980360       33.1361938425        5.5720812207
  O        39.2170813284       31.5746998396        6.6655504927
  O        20.3085165814        1.0396256061        6.5021528789
  O        38.0246572029       33.1856926983       10.4154698579
  O        39.2186143168       31.5832311496        9.3271116418
  O        40.6522771472       33.7693776963       10.0600394416
  O        18.2555741740        1.3760467615        7.9967920611
  O        44.6221734522       35.1006292179        6.7587449981
  O        24.2054039529        0.0000649078        9.3207585253
  O        22.7530099361        2.0587514770       10.5843942607
  O        21.6244443144        3.5961223436        9.3428059296
  O        27.5509114518       18.6923751718        5.4051636657
  O        26.7312658312       16.9932092997        6.6661958948
  O        30.6663892712       19.4026942782        8.0056569562
  O        33.5918249764       16.2727721891        5.6676538273
  O        34.2738552955       18.1692398950        6.7322766797
  O        29.5782806530       17.0618499983        6.5701513232
  O        33.6242525741       16.3298810134       10.4083821155
  O        34.3051349859       18.2493927093        9.4038528853
  O        31.6511515341       18.3177629473       10.1443394647
  O        30.3198671146       15.1573256478        8.0848639268
  O        28.5545003013       21.0298672922        6.8326584406
  O        28.5141444901       20.9576654014        9.3943235631
  O        27.4573371793       18.6798251229       10.6569856586
  O        26.6938094980       16.9293631602        9.4125167529
  O        13.1479955851       18.6931428013       10.5869574490
  O        13.9191396400       16.9162461980        9.4047747938
  O        50.5964761915       19.3503722943        8.0204914898
  O        47.6833351840       16.3270823662       10.4173592402
  O        46.9526393763       18.1761986473        9.3238643013
  O        11.0698806958       17.0153504460        9.4895845016
  O        47.6762144071       16.3354171339        5.6530642474
  O        46.9288625885       18.2357958415        6.6655527506
  O        49.5689296259       18.3177500821        5.9822465647
  O        10.3188001572       15.1000613544        7.9970583049
  O        52.6708115487       21.0279357827        9.2418247634
  O        12.1468080117       20.8912750516        6.6732866434
  O        13.1066938283       18.6141764594        5.3258021091
  O        13.9573891841       16.9876492733        6.6644790255
  O        29.9919077225       14.4425449028       10.7324148711
  O        28.0891473802       14.6551429931        9.4934825292
  O        32.1367405774       16.8588068164        8.0713595735
  O        30.9692060585       20.9564899765       10.4005500906
  O        32.9498825703       20.5979995198        9.3329658687
  O        29.5678473291       17.0785744222        9.5753386944
  O        30.8856511736       20.8192670039        5.5710952534
  O        32.8712264466       20.5861682976        6.6605845696
  O        31.6772423455       18.2408708024        5.9250519408
  O        28.2929942257       18.6797867488        8.0617074216
  O        32.4931501819       14.2133058367        9.3314243209
  O        32.4064533284       14.2126881278        6.8226774533
  O        29.9023871236       14.4324565715        5.5024224652
  O        28.0052627261       14.6511638824        6.7415865022
  O        17.8892456309        1.9666203533       10.6627866094
  O        18.9561928569        3.5271274504        9.4080080661
  O        39.1685648018       34.1386487322        7.9971417476
  O        43.2801776238       33.0589997004       10.3317181809
  O        42.0343598107       31.5064753081        9.2416094313
  O        20.3178675558        1.0368795307        9.4801708570
  O        43.2760475695       33.1826960293        5.5748780702
  O        42.0052079358       31.5841648311        6.5829512255
  O        40.5788724510       33.7749677364        5.9358517408
  O        22.3674966646        1.3846802597        7.9979840183
  O        36.6727800788       35.0997644732        9.2332876486
  O        16.4457412823        0.0641741710        6.6682119619
  O        17.9365640786        2.0433441621        5.3263880305
  O        18.9189495152        3.5931215480        6.6659721434
  O        29.7421176417       18.8181754341        3.8300200444
  O        29.7817697052       19.0457067369       11.9873338686
  O        31.3468146074       16.1936200232        4.0944748542
  O        31.3811877714       16.4149374149       11.9951321179
  O        32.1122525587       16.7765287258        1.4959024414
  O        30.2825750197       15.8131491478       14.4063090745
  O        31.4012582371       18.1744478417       14.7377789740
  O        30.2398609996       19.9994290081        1.5712253456
  O        28.7714346583       18.4656560124       14.4118790910
  O        39.4567993457       35.2437405002        4.0019737880
  O        19.1418893626        0.0046796797       11.9904649345
  O        41.9695001261       35.1727553577        4.0872073503
  O        21.6912552111       -0.0692760093       11.8958776356
  O        51.3649593587       18.6142768397        4.0053319635
  O        10.7510302771       18.7471730361       11.9049836334
  O        50.0795614798       16.4127796546        4.0917389696
  O         9.5239375871       16.4831564379       11.9912239663
 Zr         9.2974106905       16.0525965424        6.1825189235
 Zr        49.8367190548       16.0065495218        9.7462777571
 Zr        22.0737139637        0.0308961532        6.1887303974
 Zr        42.4614211837       35.1543078597        9.8010624487
 Zr        29.6271682798       19.0723809283        6.2533034014
 Zr        29.5780514865       19.1871189059        9.8617169729
 Zr        11.0384062839       19.0517375210        9.8277653427
 Zr        11.0442976829       19.1547109351        6.2508414108
 Zr        31.3542449774       16.1033348157        9.8826721589
 Zr        31.3872349228       15.9939849878        6.2635387470
 Zr        18.6016632066       -0.0005010553        9.7633903142
 Zr        18.5070546021       -0.0070777339        6.2137677763
 Zr        12.3026402402       16.3235405944        7.9901861662
 Zr        48.6174992511       18.8331728240        8.0103176733
 Zr        20.3156996547        2.4745031818        7.9907261192
 Zr        40.6440177213       32.6878205915        7.9779105006
 Zr        28.3443725523       16.3509926099        8.0904910884
 Zr        32.6317998968       18.8228927260        8.0480610937
  H        30.0086985989       19.6713751676        2.5298595956
