     574
 i =      504, E =     -4778.8854447469
  C        11.8587611950       14.0535363018        5.7415375057
  C        12.4562414658       12.8905995348        5.0232383965
  C        11.7045090788       12.1716062529        4.0816524663
  C        12.2808866222       11.1093967962        3.3893085896
  C        13.6214819700       10.7396437839        3.6169999927
  C        14.3546974813       11.4433049391        4.5903611920
  C        13.7818147223       12.5082857066        5.2818637007
  C        14.2609980568        9.6489660179        2.8436107146
  C        14.2562873289        9.6568727545        1.4219126987
  C        13.7431211558       10.7589949462        0.6680069853
  C        49.1268860409       21.2331371677        5.8797021195
  C        48.5501605588       22.4011460227        5.1526410105
  C        49.3001683607       23.0684090175        4.1715992980
  C        48.7332539338       24.1075696852        3.4384032980
  C        47.4027534633       24.5093019969        3.6670948845
  C        46.6718380639       23.8604964715        4.6806818848
  C        47.2342761443       22.8155777772        5.4100246963
  C        46.7724787797       25.5869944023        2.8698253472
  C        46.7613727616       25.5573517932        1.4480589993
  C        47.2613381628       24.4422776545        0.7045515896
  C        14.8602469896        8.5705458739        0.7086507338
  C        14.8918169252        8.5970432216        3.5202596605
  C        49.1131782999       21.2034085065       10.1453589235
  C        48.5277887321       22.3647954667       10.8725226601
  C        49.2670389907       23.0255599939       11.8653809940
  C        48.6907101234       24.0601175603       12.5968502196
  C        47.3602756082       24.4568462192       12.3586619926
  C        46.6398491868       23.8118942186       11.3351765769
  C        47.2134005045       22.7759816683       10.6033977525
  C        46.7217995034       25.5318029350       13.1497031633
  C        46.7335075839       25.5281466061       14.5714128265
  C        47.2490326420       24.4289672959       15.3277880451
  C        40.6218587839       17.0992631620       15.3087108434
  C        40.6326888355       17.1035933842       12.4991998597
  C        11.8830585936       14.0865604814       10.2855321876
  C        12.4724114510       12.9108270079       10.9898150286
  C        11.7148339882       12.1774512274       11.9157440005
  C        12.2814485386       11.0949899124       12.5841324481
  C        13.6203527419       10.7214450288       12.3524620034
  C        14.3584111980       11.4372146564       11.3918774574
  C        13.7929514781       12.5183837560       10.7192101239
  C        14.2539278483        9.6246483173       13.1228411939
  C        14.2525561477        9.6445645095       14.5446803599
  C        13.7426262598       10.7534880098       15.2917531984
  C        22.5115889147        3.2448391019        5.7527674896
  C        23.2246607613        4.3509580270        5.0528819023
  C        24.2209088336        4.0727048431        4.1053625145
  C        24.8456544770        5.1134154252        3.4228985779
  C        24.4898902061        6.4547813449        3.6674654637
  C        23.5221381595        6.7245522416        4.6522856348
  C        22.8928394944        5.6857158891        5.3332465175
  C        25.0927899089        7.5623224402        2.8908742547
  C        25.0645416724        7.5547156960        1.4692972220
  C        24.3634577871        6.5540057094        0.7240338849
  C        38.2988846548       31.9276428926        5.8515266220
  C        37.5594632491       30.8381773854        5.1490702718
  C        36.5945383025       31.1439307528        4.1768544454
  C        35.9664954506       30.1252235725        3.4652999200
  C        36.2880097743       28.7742959560        3.7026166647
  C        37.2223598930       28.4759481018        4.7124399788
  C        37.8543481950       29.4936540463        5.4234059143
  C        35.6792823511       27.6855782293        2.9033699681
  C        35.7181665467       27.7011786437        1.4816220022
  C        36.4314886923       28.7017722678        0.7487722493
  C        25.6857680719        8.6250765766        0.7483119797
  C        25.6886836781        8.6386402549        3.5603769484
  C        38.3304995180       31.9612165580       10.1599241902
  C        37.6133070304       30.8885161587       10.9090908075
  C        36.6819415845       31.1989293543       11.9120351732
  C        36.0716570643       30.1824249229       12.6448693066
  C        36.3776374542       28.8287948269       12.3988733891
  C        37.2897821370       28.5282524151       11.3685101035
  C        37.9020502909       29.5413447630       10.6369448516
  C        35.7622699536       27.7307752324       13.1807167821
  C        35.7603098731       27.7246247190       14.6032245009
  C        36.4503226502       28.7137938122       15.3721206961
  C        46.1354687101       26.6207638524       15.2815608421
  C        46.0877903770       26.5801401638       12.4736602671
  C        22.4602005373        3.2554612784       10.2572160824
  C        23.1528173190        4.3643412922       10.9799334496
  C        24.1543081670        4.0790600119       11.9215193985
  C        24.7807431001        5.1099528044       12.6174575430
  C        24.4256237352        6.4552472733       12.3939587590
  C        23.4473145536        6.7337870568       11.4208110604
  C        22.8161237830        5.7031843317       10.7254836380
  C        25.0546093674        7.5541571001       13.1676989924
  C        25.0454357524        7.5497341710       14.5902929423
  C        24.3522434085        6.5529631020       15.3471770443
  C        26.6160433282       17.8577294394        5.7837355308
  C        25.3112529189       17.9018140666        5.0573546632
  C        25.0475845576       18.9012596081        4.1070756525
  C        23.8358082596       18.9179919696        3.4194361451
  C        22.8498385737       17.9398840897        3.6612616060
  C        23.1091213124       16.9631556789        4.6414820978
  C        24.3234018458       16.9399524702        5.3258040656
  C        21.5767850766       17.9257690517        2.8969595273
  C        21.5774398851       17.9079343319        1.4743568846
  C        22.7830781527       17.7858194445        0.7135656745
  C        34.4417762044       17.1964067709        5.9233459220
  C        35.7356994767       17.1471500952        5.1784337855
  C        35.9449976642       16.1699275976        4.1925542792
  C        37.1230381745       16.1587188503        3.4506563833
  C        38.1253398111       17.1223193855        3.6764101047
  C        37.9193996416       18.0796215428        4.6878621138
  C        36.7377772498       18.0970195135        5.4259066778
  C        39.3782981265       17.1297062366        2.8870784088
  C        39.3703452124       17.1329089280        1.4653269952
  C        38.1610692366       17.2465016947        0.7096355365
  C        20.3305042064       17.9278601185        0.7663740991
  C        20.3523092224       17.9276840493        3.5798559617
  C        34.4412538033       17.2360724018       10.1882393869
  C        35.7445237637       17.1328746548       10.9075806883
  C        35.9477309393       16.1561244163       11.8937856339
  C        37.1379130802       16.1264040384       12.6168959543
  C        38.1533348603       17.0720786289       12.3735008150
  C        37.9565493192       18.0205346964       11.3522644035
  C        36.7659110315       18.0554936031       10.6327074209
  C        39.4024918823       17.0907311528       13.1668260270
  C        39.3826532644       17.1131777831       14.5881607738
  C        38.1669824933       17.2354433394       15.3328003002
  C        35.1208225091       26.6475787151       15.3030095087
  C        35.1742557996       26.6609786974       12.4936027557
  C        26.5661770356       17.8271047037       10.3204711308
  C        25.2505316634       17.8740765657       11.0240955567
  C        24.9862747215       18.8796763149       11.9660532775
  C        23.7699722720       18.9038750685       12.6422397292
  C        22.7883544024       17.9227351592       12.3991125040
  C        23.0460603080       16.9423936137       11.4238002644
  C        24.2636794348       16.9157366184       10.7465183345
  C        21.5261511355       17.9040035058       13.1742024196
  C        21.5511440189       17.8954430480       14.5958396854
  C        22.7701551486       17.7800051142       15.3369504538
  C        14.0462021146       17.8289666681       10.2887537888
  C        15.3500851670       17.8861673570       11.0141030153
  C        15.6058731909       18.8889009516       11.9624214662
  C        16.8145447910       18.9096774364       12.6556404422
  C        17.8013898792       17.9305450669       12.4225668104
  C        17.5503745070       16.9521543395       11.4420401925
  C        16.3411812864       16.9267520846       10.7504184426
  C        19.0702627265       17.9132203495       13.1913037890
  C        19.0696160401       17.9104513102       14.6136731453
  C        17.8628272207       17.8118651912       15.3752170647
  C        46.8031480314       17.2164906684       10.1569287021
  C        45.5100520424       17.1474823915       10.8978409639
  C        45.3074565022       16.1689968853       11.8834972650
  C        44.1236140723       16.1430727827       12.6160375149
  C        43.1115801664       17.0952394701       12.3851372986
  C        43.3107836934       18.0521949010       11.3715963150
  C        44.4957416892       18.0823554810       10.6401950064
  C        41.8584792972       17.1012610527       13.1749359063
  C        41.8670708734       17.1114454386       14.5970308270
  C        43.0771395810       17.2166815682       15.3526372867
  C        20.3167383707       17.9205992644       15.3213296398
  C        20.2938945015       17.8927533950       12.5083864577
  C        46.7856538050       17.2331624367        5.8862186687
  C        45.4844321018       17.1320605196        5.1653601791
  C        45.2664372445       16.1368855307        4.2004626017
  C        44.0794374403       16.1131469505        3.4721597535
  C        43.0804363730       17.0817311325        3.6909977425
  C        43.2896382245       18.0478595314        4.6929147296
  C        44.4776167536       18.0778312935        5.4165170104
  C        41.8327803672       17.1032468195        2.8957391701
  C        41.8540856001       17.1113815231        1.4744737032
  C        43.0711555868       17.2134029434        0.7296223173
  C        46.1532899417       26.6372094427        0.7263242680
  C        46.1625664855       26.6561360954        3.5359598707
  C        14.0456091140       17.8312712225        5.7085177312
  C        15.3665568881       17.9042491692        5.0178792302
  C        15.6416517937       18.9196745412        4.0897791607
  C        16.8708085105       18.9553779691        3.4351438899
  C        17.8525770190       17.9746654996        3.6823784027
  C        17.5843405341       16.9882574010        4.6488244774
  C        16.3573335481       16.9521211898        5.3071866861
  C        19.1196983259       17.9484191279        2.9132385806
  C        19.0955787053       17.9269072378        1.4917077321
  C        17.8754286705       17.8191468208        0.7513897624
  C        28.8088708226       14.0891003590       10.3899960665
  C        28.1950150010       12.9142553329       11.0736158135
  C        28.9150379497       12.1741950140       12.0228254222
  C        28.3129369526       11.1011267659       12.6746527906
  C        26.9770284905       10.7447243845       12.4010681978
  C        26.2791246750       11.4641920868       11.4145781277
  C        26.8789511919       12.5376243444       10.7612129685
  C        26.3054056534        9.6673284190       13.1631050834
  C        26.2898999966        9.6965046697       14.5840492056
  C        26.7903714514       10.8118135573       15.3280510189
  C        32.1787207778       21.2393247253       10.1461657818
  C        32.7713732079       22.4091226325       10.8636346377
  C        32.0195707821       23.0900929092       11.8335916808
  C        32.5876517925       24.1307356544       12.5625093696
  C        33.9239323080       24.5184410164       12.3439602970
  C        34.6583138014       23.8562724812       11.3419340972
  C        34.0922108970       22.8107498875       10.6142105009
  C        34.5505001010       25.5930172498       13.1484431527
  C        34.5309206465       25.5656345265       14.5703999358
  C        34.0112508561       24.4533808249       15.3054538970
  C        25.6807492464        8.6188969393       15.3036681222
  C        25.6704739109        8.6152646846       12.4905678824
  C        32.0819764622       21.2023402945        5.8809792289
  C        32.6518558149       22.3653790623        5.1357507026
  C        31.9114122227       23.0267044710        4.1434397765
  C        32.4853936184       24.0630103758        3.4081825413
  C        33.8124791855       24.4711420005        3.6497530991
  C        34.5335050722       23.8247824065        4.6721424383
  C        33.9658579840       22.7828926538        5.4000505547
  C        34.4533890949       25.5565859668        2.8701285281
  C        34.4793713124       25.5476792441        1.4482145627
  C        33.9850837259       24.4452598199        0.6820932912
  C        40.6150521682       17.1045384885        0.7536104703
  C        40.6033277953       17.1306832037        3.5637765848
  C        28.7398833267       14.0676745661        5.8162679062
  C        28.1266144758       12.9270705437        5.0731767007
  C        28.8593300028       12.2294947060        4.1003085850
  C        28.2744329276       11.1758948789        3.4020121701
  C        26.9415442104       10.7923064818        3.6521191371
  C        26.2253194006       11.4782438508        4.6510336303
  C        26.8076956963       12.5331869591        5.3503235555
  C        26.2984766614        9.7014641443        2.8813246493
  C        26.2883749268        9.7141895545        1.4596174849
  C        26.7875867639       10.8215535446        0.7040800542
  C        18.1353846972        3.1809794767       10.3171653179
  C        17.4061667987        4.2782126613       11.0158137039
  C        16.3903240312        3.9999081153       11.9432186500
  C        15.7426274604        5.0399280436       12.6066719208
  C        16.0947270794        6.3836298794       12.3671241306
  C        17.0842723709        6.6531036588       11.4035133029
  C        17.7333353393        5.6157234999       10.7384879838
  C        15.4703643452        7.4913250960       13.1301465204
  C        15.4855545727        7.4905795578       14.5518590098
  C        16.1871098734        6.4969587687       15.3050235932
  C        42.9458022269       31.8595272171       10.0728688383
  C        43.6461356608       30.7718221081       10.8168335629
  C        44.5915371798       31.0931500192       11.8030237408
  C        45.1972291228       30.0876085717       12.5507085993
  C        44.8709301997       28.7345281170       12.3357476109
  C        43.9452686111       28.4201803150       11.3223784299
  C        43.3364773610       29.4253227872       10.5743163766
  C        45.4885265403       27.6552351593       13.1389429272
  C        45.4926911145       27.6808520249       14.5606415310
  C        44.8056187282       28.6888889198       15.3072940259
  C        14.8565246811        8.5630331864       15.2642222195
  C        14.8751953823        8.5631517518       12.4515422633
  C        42.9464855798       31.9616696086        5.8090005012
  C        43.6917979849       30.8855251027        5.0955994946
  C        44.6562644167       31.1914283413        4.1231684827
  C        45.2777981367       30.1718382766        3.4054503904
  C        44.9541780520       28.8215038888        3.6432140545
  C        44.0208736922       28.5238468123        4.6541654065
  C        43.3926014078       29.5406141230        5.3663398077
  C        45.5631717893       27.7240981829        2.8579355571
  C        45.5333346511       27.7173608354        1.4366391444
  C        44.8269563909       28.7075492873        0.6836867498
  C        35.0969727446       26.6372121670        0.7483800097
  C        35.0649060350       26.6121856299        3.5588177051
  C        18.1485410950        3.2469815689        5.7065562046
  C        17.4299971805        4.3437834571        4.9972533257
  C        16.4147166409        4.0525288542        4.0737489566
  C        15.7664000442        5.0831828256        3.3984113795
  C        16.1211695407        6.4284071913        3.6210723459
  C        17.1126559321        6.7117680988        4.5782248009
  C        17.7603421308        5.6828390006        5.2579526289
  C        15.4906217149        7.5241008487        2.8486642958
  C        15.4964927406        7.5074563929        1.4275310730
  C        16.1933003319        6.5057761285        0.6808390484
  H        10.6723527389       12.4656838320        3.9046840421
  H        11.6945801364       10.5508449822        2.6628365318
  H        15.3917705983       11.1688136578        4.7720012855
  H        14.3513440170       13.0715995079        6.0171754356
  H        13.3761285248       11.6311210948        1.2013223616
  H        50.3228472793       22.7483148292        3.9868047781
  H        49.3197439980       24.6227986796        2.6808027827
  H        45.6423938317       24.1613780981        4.8639421312
  H        46.6633098967       22.2904049537        6.1721965478
  H        47.6299762717       23.5759345539        1.2462252597
  H        14.8722319187        8.5883325171        4.6085690894
  H        50.2871104961       22.7027637939       12.0602437301
  H        49.2691399025       24.5756275327       13.3602911191
  H        45.6104369681       24.1091188155       11.1461334654
  H        46.6525578604       22.2537635553        9.8318954958
  H        47.6078897496       23.5518870305       14.7968758289
  H        40.6364937729       17.0632308562       11.4116005849
  H        48.6870803647       14.0950741381        7.8000499992
  H        10.6812863168       12.4663546858       12.0929989523
  H        11.6896249137       10.5244152612       13.2966637311
  H        15.3939459151       11.1595671143       11.2061531929
  H        14.3653983116       13.0879534018        9.9909255096
  H        13.3758691830       11.6221289725       14.7531115300
  H        47.9302140304       14.2185254069        9.7109182801
  H        47.7799509649       14.3735888067        6.4952938991
  H        49.0831889550       18.5521007397       10.8671689532
  H        10.4160482312       14.1343332502        7.9987460439
  H        24.4833055296        3.0345882667        3.9139006055
  H        25.6182509985        4.8972306584        2.6881956586
  H        23.2399326935        7.7570073525        4.8477760896
  H        22.1233805234        5.8848848769        6.0751345145
  H        23.8030950366        5.7970265498        1.2649338928
  H        36.3615735855       32.1878009186        3.9803392975
  H        35.2192160763       30.3674109155        2.7127894910
  H        37.4790077892       27.4361088202        4.9042401076
  H        38.6013001002       29.2696356785        6.1813738092
  H        36.9949258103       29.4500619418        1.2984857112
  H        25.7249580969        8.6222232889        4.6481770359
  H        36.4556847940       32.2434535400       12.1140887815
  H        35.3429462992       30.4301864069       13.4135514220
  H        37.5398223811       27.4877827233       11.1718310443
  H        38.6271164187       29.3129071775        9.8595497999
  H        37.0291941060       29.4710283234       14.8510571771
  H        46.1092479478       26.5875613834       11.3856233211
  H        44.6683386232       35.1162414342        7.8139565419
  H        24.4324395509        3.0410501797       12.0893093816
  H        25.5611311237        4.8824250201       13.3404968093
  H        23.1621338346        7.7681247541       11.2396952721
  H        22.0448311556        5.9148279032        9.9885529056
  H        23.7826114445        5.7956882496       14.8163167660
  H        44.9540417877       34.3905407111        9.6952527486
  H        44.9020185822       34.2069255294        6.4906062112
  H        40.6664587753       33.2092895158       10.8532613097
  H        23.1502005786        1.9580617004        8.0051194285
  H        25.8016332893       19.6633912542        3.9243590199
  H        23.6369487001       19.6986655648        2.6883149714
  H        22.3594891897       16.1991382137        4.8373051659
  H        24.5338321129       16.1727032176        6.0673184605
  H        23.7247571683       17.6647147935        1.2413290115
  H        35.1675248457       15.4287558025        4.0210066153
  H        37.2846088037       15.3933902410        2.6945541611
  H        38.6853535695       18.8315596440        4.8664135630
  H        36.5619386074       18.8505051765        6.1903176640
  H        37.2230130293       17.3736698202        1.2425048937
  H        20.3595019079       17.9655450683        4.6677989837
  H        35.1549874703       15.4381667364       12.0917326470
  H        37.2937088615       15.3659993804       13.3790800275
  H        38.7339462513       18.7565868346       11.1580313453
  H        36.5930701496       18.8068801130        9.8660107013
  H        37.2331333186       17.3532811870       14.7906884251
  H        35.1553587396       26.6865413645       11.4057052136
  H        28.5124944453       21.0790003868        7.9782874771
  H        25.7469281638       19.6342586376       12.1520584622
  H        23.5654414956       19.6871482044       13.3688956423
  H        22.2961408086       16.1780184237       11.2306936976
  H        24.4798090253       16.1463016266       10.0091709650
  H        23.7016790009       17.6549389700       14.7927717543
  H        29.0117262479       21.7161790489        9.7600604717
  H        29.1447797674       21.7491288080        6.6179149280
  H        32.0833795481       18.5468299715       11.0023955739
  H        27.4061693614       19.0763776390        8.0857799243
  H        14.8470423438       19.6474929693       12.1407999317
  H        17.0095149808       19.6934477473       13.3844745934
  H        18.3021255314       16.1884996632       11.2532338604
  H        16.1356291549       16.1581510969       10.0091771921
  H        16.9200751453       17.6972015694       14.8481980841
  H        46.0951930944       15.4426790136       12.0693157245
  H        43.9685039738       15.3772048820       13.3728142375
  H        42.5375958314       18.7953878173       11.1880676993
  H        44.6654025118       18.8362860784        9.8749994786
  H        44.0172176442       17.3310986923       14.8205805059
  H        20.2873695933       17.9221068964       11.4202554750
  H        46.0424312465       15.3956113221        4.0234699579
  H        43.9131765827       15.3398815789        2.7252907956
  H        42.5239773253       18.8006356724        4.8686345723
  H        44.6596267831       18.8424036542        6.1677661023
  H        44.0067219810       17.3241491022        1.2702410183
  H        46.1995497589       26.6827278146        4.6233989879
  H        52.7412500135       21.0626619571        8.1946946339
  H        14.8823923422       19.6747107624        3.8981401382
  H        17.0832103872       19.7458178111        2.7184981749
  H        18.3335493415       16.2246612206        4.8475889289
  H        16.1350603152       16.1776271895        6.0371997031
  H        16.9421727430       17.7102240492        1.2956183810
  H        52.3226241046       21.6732940991        6.2941754317
  H        52.0134716333       21.7023004326        9.4956277099
  H        49.0678887111       18.6078929729        5.2038786652
  H        13.2475966376       19.0161103718        7.9772182836
  H        29.9432557635       12.4561758614       12.2376893241
  H        28.8721077884       10.5268692102       13.4101544914
  H        25.2468175198       11.1985356068       11.1962756629
  H        26.3376415680       13.1159188917       10.0165226857
  H        27.1511464687       11.6812835479       14.7866888311
  H        30.9936678421       22.7768729485       12.0119421778
  H        31.9986636254       24.6575114889       13.3101356364
  H        35.6926092601       24.1454822337       11.1669431108
  H        34.6653772173       22.2741377802        9.8615497501
  H        33.6558037831       23.5857891080       14.7569897751
  H        25.7022093056        8.5940807742       11.4026573929
  H        30.8848344192       22.7151544930        3.9607346961
  H        31.9040545966       24.5758051397        2.6448921502
  H        35.5603294110       24.1281993584        4.8657462038
  H        34.5293621451       22.2621882537        6.1706648405
  H        33.6098037108       23.5705164920        1.2057193259
  H        40.5987739232       17.0984558026        4.6516353430
  H        32.5089703010       14.1547580363        8.2598477192
  H        29.8904174223       12.5205758546        3.9128813419
  H        28.8502887867       10.6308002134        2.6572724255
  H        25.1938893180       11.1948486797        4.8504527713
  H        26.2523984122       13.0774060802        6.1106306982
  H        27.1448152167       11.6994816803        1.2345497469
  H        33.2986763333       14.1982770084        6.4448796645
  H        33.4060128390       14.4085606998        9.6031224646
  H        32.1636054840       18.5328100582        5.1931361284
  H        30.2251355361       14.1935460436        8.0830683096
  H        16.1181222512        2.9634273031       12.1295288762
  H        14.9530673700        4.8206149176       13.3222301903
  H        17.3669311741        7.6859501794       11.2105604681
  H        18.5155240704        5.8183651781       10.0107961075
  H        16.7537692332        5.7396914009       14.7715256104
  H        44.8277623400       32.1402341446       11.9772710195
  H        45.9370268769       30.3413847774       13.3067139387
  H        43.6827481546       27.3780898751       11.1521186292
  H        42.6000688789       29.1899747592        9.8094575654
  H        44.2302736570       29.4366738209       14.7690062435
  H        14.8515767077        8.5464830782       11.3633151396
  H        44.8997153971       32.2341141052        3.9316151585
  H        46.0246148727       30.4130926775        2.6521342688
  H        43.7641034480       27.4841040128        4.8459098770
  H        42.6462627777       29.3178128892        6.1249428886
  H        44.2685084016       29.4704733677        1.2182742377
  H        35.0176116260       26.6230870155        4.6461558602
  H        36.6052590943       35.1339955760        8.1807291724
  H        16.1435551185        3.0129655886        3.9040803174
  H        14.9740151222        4.8563935662        2.6883746472
  H        17.3963030622        7.7472184867        4.7550046753
  H        18.5433406511        5.8932940656        5.9825859114
  H        16.7648120627        5.7555913687        1.2192785723
  H        36.2787391410       34.4822506783        6.2731234716
  H        36.3810864852       34.2089773954        9.4995358681
  H        40.5794756049       33.2019750293        5.1537987182
  H        17.4709250850        1.9472061037        7.9740355553
  H        28.9045226979       19.3162388597       12.4773538619
  H        28.7620442053       18.7597043970        3.8264002580
  H        30.7554752635       15.5201560183        3.7667814299
  H        31.1731058634       15.6159664090       12.5467015070
  H        28.1306498865       17.7810750860       15.2538319700
  H        29.5665747959       15.4555723283       15.0424440653
  H        32.1088130113       19.1822210301        1.4512161946
  H        32.8189780909       16.8017169587        2.0236517800
  H        28.2141091144       15.6852529796        2.7512862579
  H        32.2675270153       18.7855491272       14.4691674051
  H        18.8538629594        0.8690846222       12.3352291284
  H        40.5280510192       35.2289727696        3.9520625781
  H        42.3243302647       34.4192782426        3.5902608997
  H        22.0876835556        0.6923134735       12.3514271479
  H        11.5969426815       18.7126377525       12.3823526410
  H        52.2650682826       18.4312484561        3.6774116735
  H        49.2551404313       16.4769482539        3.5845498208
  H        10.1503282890       15.7983033035       12.2927146399
  H        50.8502240060       17.6924536975        3.9542011490
  H        10.0460889589       17.3946805939       12.0518951076
  H        20.2153768279        0.0023749271       12.0418872417
  H        39.1837137641       36.1245254868        3.6866317823
 Ni        30.8204663936       17.8383065112        2.9174734222
 Ni        31.2875583703       16.8359265145        0.0028808071
 Ni        30.0577346475       18.9143491182        0.2463671670
 Ni        30.0965516283       17.4842286334       13.4866523381
  O        10.6499225549       14.3651262039        5.4858415520
  O        12.6131675504       14.6574955987        6.5838937271
  O        49.1478684024       16.8459179604        7.9897736942
  O        50.3502834187       20.9357990269        5.6480491061
  O        48.3485688438       20.5932971998        6.6659452227
  O        11.0516390574       17.0538190061        6.5006861553
  O        50.3209483790       20.8816759160       10.4068538765
  O        48.3467110541       20.5867407544        9.3271238457
  O        49.5436705367       18.2484137256       10.0682237498
  O        12.3590097208       18.6246219666        7.9996782628
  O        48.6932062138       14.1486392211        6.7512866022
  O         8.2098973857       14.2104250719        9.3225306369
  O        10.7353827781       14.5067489714       10.6643340318
  O        12.5718030586       14.5828244042        9.3284858738
  O        22.8446376884        2.0436024995        5.4870797756
  O        21.6052998057        3.5921718741        6.5897896913
  O        42.0580936847       34.1372882732        7.9788709103
  O        37.9812294048       33.1360593057        5.5722902509
  O        39.2174720351       31.5750522028        6.6660298351
  O        20.3083828227        1.0394234905        6.5020083972
  O        38.0244634047       33.1851737937       10.4156313357
  O        39.2184681899       31.5830493465        9.3273324615
  O        40.6522318683       33.7692536081       10.0601534365
  O        18.2555419345        1.3759421342        7.9967581315
  O        44.6222082884       35.1005695132        6.7587609112
  O        24.2054073053       -0.0000095116        9.3207578596
  O        22.7528242148        2.0575272683       10.5836174167
  O        21.6240710724        3.5955878580        9.3419275392
  O        27.4955099782       18.7505197719        5.4936079731
  O        26.7628556953       16.9351450215        6.6539460111
  O        30.6648119646       19.4027381065        8.0731761916
  O        33.5892369881       16.2793028808        5.6672613837
  O        34.2746251532       18.1711342575        6.7365388396
  O        29.5739047732       17.0633072033        6.5796640416
  O        33.5548845577       16.3405795397       10.4209687548
  O        34.3016013561       18.2396549179        9.4104991321
  O        31.6474379217       18.3166829301       10.1653337939
  O        30.3236842696       15.1597564728        8.0866739423
  O        28.5521451188       21.0322779750        6.9053438136
  O        28.5150825119       20.9548399805        9.4144757709
  O        27.4519361100       18.6795362384       10.6566958807
  O        26.6940889778       16.9280762333        9.4115096796
  O        13.1482052212       18.6930506666       10.5873028253
  O        13.9191925698       16.9162856714        9.4049646538
  O        50.5960764816       19.3501814344        8.0203976760
  O        47.6830694167       16.3269947787       10.4173067166
  O        46.9507151955       18.1756267479        9.3252481759
  O        11.0697270273       17.0155582166        9.4896189526
  O        47.6753806616       16.3360023184        5.6525968143
  O        46.9265585659       18.2359683494        6.6641659921
  O        49.5686102682       18.3176812766        5.9822976328
  O        10.3186505947       15.1001848267        7.9970886194
  O        52.6707553137       21.0279024164        9.2418104194
  O        12.1468476937       20.8911865333        6.6732440301
  O        13.1083559392       18.6135837059        5.3255952979
  O        13.9570950166       16.9869521782        6.6655023549
  O        29.9926928755       14.4396816005       10.7307603032
  O        28.0897832770       14.6540992462        9.4942609692
  O        32.1294590985       16.8583399241        8.0864173131
  O        30.9648072429       20.9500743344       10.4126260630
  O        32.9468542277       20.6016945483        9.3410964995
  O        29.5654010749       17.0783351195        9.5760154659
  O        30.8563117664       20.8886942400        5.6563642551
  O        32.8727883797       20.5853217592        6.6654973094
  O        31.6812723881       18.2516811749        5.9885230522
  O        28.2912098332       18.6768406902        8.0791718849
  O        32.4899907831       14.2150147497        9.3329191612
  O        32.4044120477       14.2135109249        6.8243567265
  O        29.9152161265       14.4404311120        5.4828815941
  O        28.0397950925       14.5876243873        6.7515353723
  O        17.8892180828        1.9665619686       10.6628159828
  O        18.9561832903        3.5270870675        9.4079669228
  O        39.1685780218       34.1386461016        7.9971410246
  O        43.2801705399       33.0589075299       10.3316991258
  O        42.0343808816       31.5064524342        9.2416119969
  O        20.3176127731        1.0366755344        9.4801332122
  O        43.2760873774       33.1826111662        5.5748936276
  O        42.0052470292       31.5841346571        6.5829862018
  O        40.5788908922       33.7748515650        5.9357730546
  O        22.3672961661        1.3845324860        7.9978565370
  O        36.6727970436       35.0997010278        9.2333382323
  O        16.4456387647        0.0641306115        6.6682084464
  O        17.9364874763        2.0433094241        5.3263705820
  O        18.9189686679        3.5931169853        6.6659092066
  O        29.6994284257       18.8949835850        4.0620532719
  O        29.6943067828       18.9069354728       12.0785411829
  O        31.2991134004       16.2652554532        4.0836210796
  O        31.1806024793       16.4704529188       12.0740015686
  O        32.2258918714       17.4406334370        1.5876477611
  O        28.5458556334       16.0367168499        1.9074171199
  O        30.3779258824       15.8367771562       14.6633733489
  O        31.4240713067       18.3877996532       14.7419666664
  O        31.4713267916       19.9351401889        1.2553835409
  O        28.8104268597       18.3874385985       14.9127835751
  O        39.4567857445       35.2437882125        4.0019779472
  O        19.1418174650        0.0046254993       11.9904995643
  O        41.9695623778       35.1727883971        4.0871594234
  O        21.6913492430       -0.0692495765       11.8959282501
  O        51.3651760067       18.6143007051        4.0054331608
  O        10.7510677976       18.7471317936       11.9049371760
  O        50.0796105887       16.4128369148        4.0917653695
  O         9.5244064355       16.4831119796       11.9911702095
 Zr         9.2971233467       16.0527470200        6.1824618833
 Zr        49.8367346213       16.0067301236        9.7464690149
 Zr        22.0734715216        0.0302051904        6.1888596963
 Zr        42.4610562311       35.1537077409        9.8008720320
 Zr        29.6055593418       19.0949332407        6.3032561289
 Zr        29.5718889365       19.1674155930        9.9074947294
 Zr        11.0382136314       19.0519751278        9.8277591340
 Zr        11.0442387180       19.1547417648        6.2510349191
 Zr        31.3328633456       16.1079052658        9.9140612218
 Zr        31.3995182414       16.0128658638        6.2802402879
 Zr        18.6013170335       -0.0011846046        9.7634943093
 Zr        18.5067123093       -0.0076928264        6.2136435855
 Zr        12.3025032125       16.3235531131        7.9903332957
 Zr        48.6166201443       18.8330134871        8.0104032393
 Zr        20.3151958948        2.4737265494        7.9903782592
 Zr        40.6434490600       32.6872085296        7.9780909594
 Zr        28.3523262288       16.3427862100        8.0852777449
 Zr        32.6210051148       18.8288998179        8.0623109439
  H        29.1922721540       16.7403170183        2.1730175500
  H        31.2090143653       20.2816338701        2.1331111747
