     574
 i =      206, E =     -4778.8935525965
  C        11.8587431551       14.0536484457        5.7415820233
  C        12.4562955091       12.8906451066        5.0232444463
  C        11.7045873316       12.1716642725        4.0816575427
  C        12.2809668404       11.1094636258        3.3892817981
  C        13.6215604645       10.7397608709        3.6169726669
  C        14.3547655287       11.4433953087        4.5903506851
  C        13.7818687660       12.5083831633        5.2818520300
  C        14.2610789730        9.6490524943        2.8436092152
  C        14.2565806680        9.6570068644        1.4219055528
  C        13.7435656484       10.7592000106        0.6679969207
  C        49.1267939927       21.2332114095        5.8796495172
  C        48.5499875822       22.4011292995        5.1525463559
  C        49.3001087269       23.0685474323        4.1716870573
  C        48.7331732392       24.1076391702        3.4384202104
  C        47.4025632622       24.5091317987        3.6668857757
  C        46.6714722570       23.8600936074        4.6801860487
  C        47.2339374472       22.8152418737        5.4096130985
  C        46.7723495893       25.5868816955        2.8696462383
  C        46.7613968478       25.5573750552        1.4478847144
  C        47.2613997102       24.4423349415        0.7043632204
  C        14.8604479873        8.5706000545        0.7086793593
  C        14.8916293001        8.5969960428        3.5202886484
  C        49.1131226592       21.2033721445       10.1453507268
  C        48.5277093450       22.3647554323       10.8725081668
  C        49.2670022912       23.0256181345       11.8652712653
  C        48.6906738983       24.0602244233       12.5966663038
  C        47.3602042216       24.4568614905       12.3585379106
  C        46.6397082571       23.8117773319       11.3351917684
  C        47.2132653565       22.7758305248       10.6034554288
  C        46.7217474614       25.5318377362       13.1495617344
  C        46.7335737829       25.5282523512       14.5712662383
  C        47.2490947330       24.4290538427       15.3276061075
  C        40.6296534618       17.1027909374       15.3259159902
  C        40.6537434951       17.1516042106       12.5167978644
  C        11.8830207933       14.0866232598       10.2854685520
  C        12.4724338979       12.9108005347       10.9897981446
  C        11.7148906401       12.1775011079       11.9157863657
  C        12.2815029194       11.0950414423       12.5842054965
  C        13.6203662522       10.7214459986       12.3524860654
  C        14.3583919077       11.4371702553       11.3918558468
  C        13.7929521075       12.5183569810       10.7191759145
  C        14.2539671530        9.6246339105       13.1228584582
  C        14.2528217830        9.6446458558       14.5447015320
  C        13.7430564903       10.7536662483       15.2917402245
  C        22.5122942436        3.2437901771        5.7529142072
  C        23.2294797160        4.3475155915        5.0523207378
  C        24.2284109667        4.0632794872        4.1094269727
  C        24.8594789247        5.0996826331        3.4263332623
  C        24.5073117292        6.4427527117        3.6659465283
  C        23.5360156836        6.7186896651        4.6455533164
  C        22.9004742332        5.6839004149        5.3272479490
  C        25.1188115105        7.5458471337        2.8896471089
  C        25.0969919794        7.5360935838        1.4679209623
  C        24.3926748401        6.5385223083        0.7214931599
  C        38.2985324175       31.9280662879        5.8511441045
  C        37.5581891487       30.8403344130        5.1481945171
  C        36.5925673668       31.1486669233        4.1773599037
  C        35.9625184128       30.1319209917        3.4650071843
  C        36.2827928556       28.7802630896        3.6998000856
  C        37.2181678624       28.4793714175        4.7080584324
  C        37.8520143547       29.4950737586        5.4201162597
  C        35.6718016873       27.6929660127        2.9006673360
  C        35.7077883024       27.7090693256        1.4788408158
  C        36.4180344899       28.7108763393        0.7448135214
  C        25.7265759765        8.6022805480        0.7479349675
  C        25.7149083111        8.6215484379        3.5600586077
  C        38.3292014514       31.9608383744       10.1592768318
  C        37.6096462047       30.8888172268       10.9064375960
  C        36.6761933859       31.1998480346       11.9074258237
  C        36.0638726175       30.1838985131       12.6392443466
  C        36.3698404282       28.8298572227       12.3948778416
  C        37.2833594576       28.5287901909       11.3657334939
  C        37.8975028560       29.5412506379       10.6348489807
  C        35.7544901783       27.7324612563       13.1776143619
  C        35.7501230881       27.7291595952       14.6001877811
  C        36.4368005094       28.7213380404       15.3681129803
  C        46.1355303540       26.6208528048       15.2814297117
  C        46.0876269971       26.5801059463       12.4735301995
  C        22.4619008292        3.2551664007       10.2569230451
  C        23.1600585031        4.3624534982       10.9787537623
  C        24.1667398581        4.0728434991       11.9135316201
  C        24.7996521696        5.1004464617       12.6087008806
  C        24.4458196527        6.4471003384       12.3916236414
  C        23.4619763310        6.7301911729       11.4253932132
  C        22.8246055809        5.7026910159       10.7305197027
  C        25.0820031954        7.5421005162       13.1657818453
  C        25.0787323141        7.5333633560       14.5885137060
  C        24.3821465222        6.5383378463       15.3446554209
  C        26.6167389587       17.8570631260        5.7816512935
  C        25.3103724047       17.9072592318        5.0601536563
  C        25.0594689945       18.8967259553        4.0962448705
  C        23.8464492555       18.9204206997        3.4111597266
  C        22.8487114183       17.9574397482        3.6655866094
  C        23.0962246765       16.9913191278        4.6596075880
  C        24.3104248611       16.9625203690        5.3436883756
  C        21.5767174355       17.9443580576        2.8996781637
  C        21.5776083248       17.9231677885        1.4768004877
  C        22.7833367063       17.7990040722        0.7166780825
  C        34.4211703999       17.2173574291        5.9080166084
  C        35.7125681826       17.1461316597        5.1669759249
  C        35.9061390865       16.1808954838        4.1667351977
  C        37.0899295634       16.1546114358        3.4344963931
  C        38.1115073659       17.0924346006        3.6819372104
  C        37.9201774118       18.0368518949        4.7087466317
  C        36.7348605092       18.0682022004        5.4388038851
  C        39.3675529743       17.0941965198        2.8979132297
  C        39.3664385597       17.1133997159        1.4759989033
  C        38.1615876440       17.2429970487        0.7156422193
  C        20.3309952245       17.9416606738        0.7678128099
  C        20.3512843211       17.9466314874        3.5811608100
  C        34.4734801676       17.2448645473       10.1824431083
  C        35.7752077224       17.1667420703       10.9063887148
  C        35.9932843861       16.1735006093       11.8727918507
  C        37.1791578787       16.1515610113       12.6011596592
  C        38.1758504057       17.1218051794       12.3815666273
  C        37.9649678482       18.0901774980       11.3826330990
  C        36.7766324380       18.1173352020       10.6576424949
  C        39.4217054065       17.1350110009       13.1789135407
  C        39.3944986421       17.1347537130       14.5998694235
  C        38.1750111645       17.2507458348       15.3388114872
  C        35.1127985756       26.6516220271       15.3012725452
  C        35.1698573692       26.6598648652       12.4919788082
  C        26.5713007809       17.8288343193       10.3256666278
  C        25.2570097844       17.8732368953       11.0320639530
  C        24.9925223642       18.8794674299       11.9733471404
  C        23.7749792633       18.9057495241       12.6473034254
  C        22.7921156547       17.9259472696       12.4031894324
  C        23.0505451482       16.9444753922       11.4291315794
  C        24.2692038677       16.9158934269       10.7537681944
  C        21.5286010855       17.9092227527       13.1763143003
  C        21.5525580947       17.9037123888       14.5979729159
  C        22.7709028425       17.7897406397       15.3401787949
  C        14.0469054604       17.8293415138       10.2886578626
  C        15.3514095785       17.8877015289       11.0135520527
  C        15.6077145317       18.8921597840       11.9600075003
  C        16.8165672601       18.9142574414       12.6530632379
  C        17.8036057956       17.9347169539       12.4220764103
  C        17.5521883942       16.9547854831       11.4430845613
  C        16.3428367878       16.9281142899       10.7514858003
  C        19.0724589972       17.9186481657       13.1914915771
  C        19.0710976672       17.9190083773       14.6140533592
  C        17.8639334904       17.8224612935       15.3752174340
  C        46.8058919289       17.2191412757       10.1600159407
  C        45.5182265821       17.1581069220       10.9092416518
  C        45.3146415164       16.1789194281       11.8938931774
  C        44.1350909459       16.1599934909       12.6332700171
  C        43.1294085058       17.1206863083       12.4103025146
  C        43.3309108594       18.0804659217       11.3998294353
  C        44.5109292212       18.1029818440       10.6610326159
  C        41.8761664811       17.1287473159       13.1984255778
  C        41.8783134511       17.1171130528       14.6203618600
  C        43.0853889307       17.2035457587       15.3828751345
  C        20.3178043096       17.9308194402       15.3226751940
  C        20.2967393707       17.8966695913       12.5095181132
  C        46.7829629959       17.2286773596        5.8914621831
  C        45.4769576190       17.1146336737        5.1816426537
  C        45.2597334292       16.1113131218        4.2249200301
  C        44.0701479407       16.0766220299        3.5014125621
  C        43.0675745306       17.0419820374        3.7175623855
  C        43.2742744311       18.0135165510        4.7147872524
  C        44.4652024224       18.0547875731        5.4332029067
  C        41.8223463004       17.0614068257        2.9180417954
  C        41.8507615257       17.0812141181        1.4970624279
  C        43.0722237000       17.1843349207        0.7594344519
  C        46.1533676603       26.6372753943        0.7261835299
  C        46.1623268754       26.6559305293        3.5358214882
  C        14.0455725220       17.8322960637        5.7088870972
  C        15.3664827329       17.9085859015        5.0186992628
  C        15.6384842872       18.9253782565        4.0911399749
  C        16.8673370728       18.9651065688        3.4362360441
  C        17.8518807651       17.9871065772        3.6828660914
  C        17.5866898567       16.9993244715        4.6488340483
  C        16.3598990152       16.9591228235        5.3073825918
  C        19.1191305546       17.9643557843        2.9138644004
  C        19.0955576374       17.9414283036        1.4923048218
  C        17.8758876273       17.8324751121        0.7514256463
  C        28.8145173297       14.0940642945       10.3909033211
  C        28.2034384937       12.9184528778       11.0788826106
  C        28.9398125263       12.1597608524       12.0007066482
  C        28.3461461804       11.0805894366       12.6509850931
  C        27.0022178550       10.7360466433       12.4025825226
  C        26.2861240540       11.4760257276       11.4448963566
  C        26.8777562957       12.5554111496       10.7932436039
  C        26.3393006942        9.6514582504       13.1631600024
  C        26.3355591750        9.6725803410       14.5840429605
  C        26.8509880663       10.7800600406       15.3294409481
  C        32.1808838631       21.2392711388       10.1460692289
  C        32.7741391464       22.4033029289       10.8680013882
  C        32.0230504276       23.0800297793       11.8413568879
  C        32.5897401743       24.1221073459       12.5686946775
  C        33.9236829872       24.5147933999       12.3455830743
  C        34.6577857165       23.8555938750       11.3413158976
  C        34.0932200530       22.8087348789       10.6148301889
  C        34.5480581228       25.5916007510       13.1482942072
  C        34.5272948284       25.5659745881       14.5703324116
  C        34.0118653636       24.4520927068       15.3061050719
  C        25.7218547001        8.5971868866       15.3030965344
  C        25.6965967064        8.6047893020       12.4896501051
  C        32.0841688381       21.2032274587        5.8730771163
  C        32.6523510446       22.3680460203        5.1324106899
  C        31.9111676482       23.0286278984        4.1399388756
  C        32.4834739775       24.0665658324        3.4062788181
  C        33.8093720811       24.4770307411        3.6494610160
  C        34.5308999978       23.8320683085        4.6724778560
  C        33.9651175224       22.7883537683        5.3989336589
  C        34.4484875813       25.5627585995        2.8691964056
  C        34.4737462590       25.5526149711        1.4471539990
  C        33.9842195871       24.4470117071        0.6827683304
  C        40.6151224579       17.0878951488        0.7705098603
  C        40.5898200443       17.0847954298        3.5800320393
  C        28.7374591486       14.0642756660        5.8213818393
  C        28.1333958890       12.9176236809        5.0804212807
  C        28.8818985490       12.2102402159        4.1265156318
  C        28.3066203021       11.1524387547        3.4260556416
  C        26.9681881483       10.7746276791        3.6555632634
  C        26.2366388525       11.4703785198        4.6364911124
  C        26.8093675443       12.5292565897        5.3382806476
  C        26.3333412766        9.6802270182        2.8823965720
  C        26.3337899102        9.6880559559        1.4607014361
  C        26.8473879094       10.7887366148        0.7053238798
  C        18.1354387591        3.1808306609       10.3172161264
  C        17.4060818987        4.2780809440       11.0157427216
  C        16.3908475960        3.9996870323       11.9437929658
  C        15.7430652304        5.0396501227       12.6072550738
  C        16.0944189955        6.3834424567       12.3670833532
  C        17.0832030962        6.6529731195       11.4026861023
  C        17.7323440291        5.6156542385       10.7376521799
  C        15.4702099367        7.4911702100       13.1301552175
  C        15.4855727621        7.4905061561       14.5518743351
  C        16.1870935804        6.4968972649       15.3050906885
  C        42.9456891297       31.8593960377       10.0729475447
  C        43.6459666291       30.7717881618       10.8168654065
  C        44.5915159759       31.0930959812       11.8029439183
  C        45.1972110612       30.0875292139       12.5505528598
  C        44.8707618275       28.7344634169       12.3356837716
  C        43.9448941677       28.4201529816       11.3224959836
  C        43.3360678275       29.4253015134       10.5744851408
  C        45.4884141669       27.6552010819       13.1388477204
  C        45.4927148728       27.6809225060       14.5605357698
  C        44.8055442053       28.6888845660       15.3071966997
  C        14.8567306083        8.5630721434       15.2642415239
  C        14.8749676518        8.5629857749       12.4515674914
  C        42.9465025822       31.9613863332        5.8090564459
  C        43.6917325849       30.8853401446        5.0956455085
  C        44.6563278064       31.1912440066        4.1233128353
  C        45.2777694384       30.1716601437        3.4055371343
  C        44.9539945521       28.8213164233        3.6431349891
  C        44.0205016576       28.5236695122        4.6539211730
  C        43.3922872003       29.5404195348        5.3661625345
  C        45.5630303032       27.7239645685        2.8578147559
  C        45.5333314607       27.7173685665        1.4365136778
  C        44.8268867658       28.7075330852        0.6835910805
  C        35.0883517226       26.6433471971        0.7465763601
  C        35.0595289350       26.6190022660        3.5570311582
  C        18.1485116878        3.2468883289        5.7066756961
  C        17.4298082719        4.3437271689        4.9975306503
  C        16.4150673976        4.0523984743        4.0734525067
  C        15.7666983718        5.0829965116        3.3980723911
  C        16.1208197477        6.4283081455        3.6212569934
  C        17.1116065556        6.7117323241        4.5791367580
  C        17.7593254770        5.6828566727        5.2589081870
  C        15.4904540355        7.5240178998        2.8487466489
  C        15.4965156411        7.5074285283        1.4276059648
  C        16.1932612316        6.5057154545        0.6809054673
  H        10.6724254997       12.4657534561        3.9047466249
  H        11.6946667766       10.5509504208        2.6627740051
  H        15.3918516319       11.1689257256        4.7719552058
  H        14.3513349601       13.0717427787        6.0171853036
  H        13.3766062119       11.6313377950        1.2013296748
  H        50.3228848058       22.7486288390        3.9871084518
  H        49.3197190485       24.6229674107        2.6809316038
  H        45.6418690643       24.1606361645        4.8631143810
  H        46.6628320705       22.2898673453        6.1715477519
  H        47.6299488508       23.5759514188        1.2460310647
  H        14.8717414093        8.5882294360        4.6085921583
  H        50.2870972304       22.7028682327       12.0600987647
  H        49.2691137282       24.5758004345       13.3600524992
  H        45.6102326152       24.1088546311       11.1462510102
  H        46.6523804801       22.2535475112        9.8320163361
  H        47.6078659517       23.5519487960       14.7966796460
  H        40.6618192954       17.1275861569       11.4287854072
  H        48.6871310540       14.0950011829        7.8000148440
  H        10.6813708406       12.4664833258       12.0930672783
  H        11.6896840439       10.5245522051       13.2968051045
  H        15.3939041991       11.1594790997       11.2060877210
  H        14.3653244189       13.0879296320        9.9908260664
  H        13.3763235638       11.6222937527       14.7530535422
  H        47.9301451771       14.2187069241        9.7106705988
  H        47.7801690662       14.3745412480        6.4953622536
  H        49.0837621644       18.5524398226       10.8673672485
  H        10.4158960098       14.1343645380        7.9988102158
  H        24.4880037210        3.0236748140        3.9223249975
  H        25.6344340130        4.8785944383        2.6955738286
  H        23.2561607841        7.7526007625        4.8367104411
  H        22.1286324317        5.8876541649        6.0654649584
  H        23.8286533082        5.7837769226        1.2617269427
  H        36.3604186241       32.1930650644        3.9828231648
  H        35.2143991950       30.3760923541        2.7139818750
  H        37.4738036633       27.4389002348        4.8977315318
  H        38.5993476225       29.2688592053        6.1770561111
  H        36.9798826619       29.4611440487        1.2934160234
  H        25.7427825937        8.6084007023        4.6481440437
  H        36.4499322275       32.2444772951       12.1088969369
  H        35.3336425895       30.4323562823       13.4062488072
  H        37.5331862662       27.4881313372       11.1697720568
  H        38.6235342150       29.3118565663        9.8586294472
  H        37.0139882728       29.4793983509       14.8464408944
  H        46.1088854644       26.5874204959       11.3854908392
  H        44.6680418723       35.1159712224        7.8140074860
  H        24.4437397575        3.0337877720       12.0767207848
  H        25.5838620444        4.8688662461       13.3263247047
  H        23.1771153925        7.7654579359       11.2490740687
  H        22.0492709348        5.9181742750        9.9988931604
  H        23.8094549136        5.7839389480       14.8129959004
  H        44.9530936377       34.3897008495        9.6946767572
  H        44.9012408840       34.2065762092        6.4906267265
  H        40.6655963153       33.2085036775       10.8528807656
  H        23.1507052875        1.9570767446        8.0052167126
  H        25.8266964826       19.6415356880        3.8976302434
  H        23.6576250883       19.6940190664        2.6699701026
  H        22.3374529973       16.2392254944        4.8660602013
  H        24.5113135524       16.2031911318        6.0958997107
  H        23.7252296673       17.6800327339        1.2445241254
  H        35.1121111256       15.4639292211        3.9717667935
  H        37.2387698298       15.3988630577        2.6664360041
  H        38.7005000219       18.7694481787        4.9042070213
  H        36.5714191247       18.8123057906        6.2148744649
  H        37.2207040909       17.3686068093        1.2438723031
  H        20.3573482896       17.9865204685        4.6690429321
  H        35.2148584519       15.4352709258       12.0496502969
  H        37.3472127781       15.3793925817       13.3487058458
  H        38.7287606747       18.8454465527       11.2093390865
  H        36.5912903549       18.8823295109        9.9073576214
  H        37.2446083062       17.3804262226       14.7933297415
  H        35.1519092050       26.6831679199       11.4040034178
  H        28.5017273697       21.0903458036        7.8844001928
  H        25.7536288728       19.6335657616       12.1596789097
  H        23.5704655488       19.6899928057       13.3729408326
  H        22.2997251850       16.1812741482       11.2348473932
  H        24.4845731079       16.1465670881       10.0161090107
  H        23.7030670920       17.6643071063       14.7973514806
  H        28.9933214090       21.7272483133        9.7532835060
  H        29.1710317195       21.7318477610        6.5549531827
  H        32.1004871822       18.5584973724       10.9255676464
  H        27.4030988416       19.0748814332        8.0850089593
  H        14.8490620652       19.6512293787       12.1371814057
  H        17.0114872142       19.6996305060       13.3802030055
  H        18.3038609781       16.1908011618       11.2552732602
  H        16.1374715829       16.1581963773       10.0115268197
  H        16.9213809277       17.7070040671       14.8480082823
  H        46.0977506261       15.4458349810       12.0724261382
  H        43.9773432472       15.3919991414       13.3872957794
  H        42.5626703491       18.8305501753       11.2237992692
  H        44.6825082270       18.8578972444        9.8972873502
  H        44.0288465094       17.3183128813       14.8568439454
  H        20.2909434471       17.9239827678       11.4213154111
  H        46.0394991859       15.3738847461        4.0486594512
  H        43.9056582399       15.2987924255        2.7588873807
  H        42.5050625641       18.7630375987        4.8888786157
  H        44.6458471288       18.8247845842        6.1792694191
  H        44.0056764265       17.2830190577        1.3058745230
  H        46.1990869245       26.6823289632        4.6232731431
  H        52.7411354574       21.0626223457        8.1946909860
  H        14.8769684849       19.6783071770        3.9002212701
  H        17.0773869737       19.7566401579        2.7200863832
  H        18.3383003868       16.2379362596        4.8469948726
  H        16.1399338677       16.1836378198        6.0370698137
  H        16.9422845758       17.7247006462        1.2953128917
  H        52.3225670732       21.6733690603        6.2943179974
  H        52.0128466262       21.7018082537        9.4955422069
  H        49.0667845161       18.6072028496        5.2041957546
  H        13.2474963602       19.0164078881        7.9773808977
  H        29.9760459692       12.4300647680       12.1912671764
  H        28.9187308222       10.4905404668       13.3634392662
  H        25.2471892640       11.2202409386       11.2471097906
  H        26.3231769462       13.1474882280       10.0693349356
  H        27.2228027644       11.6443421548       14.7874361398
  H        30.9992983293       22.7629798597       12.0243179748
  H        32.0016404968       24.6450681493       13.3195767713
  H        35.6906320638       24.1482188680       11.1636757578
  H        34.6660382671       22.2750118528        9.8599512024
  H        33.6625993346       23.5793708462       14.7612361792
  H        25.7194440326        8.5897779320       11.4014134840
  H        30.8856932765       22.7157916230        3.9531104903
  H        31.9019931202       24.5771766391        2.6416851487
  H        35.5570413981       24.1372342672        4.8667946941
  H        34.5297145580       22.2684002442        6.1691664617
  H        33.6136930255       23.5702462995        1.2064008683
  H        40.5804352690       17.0442018129        4.6676006359
  H        32.5146816177       14.1489553790        8.2462596121
  H        29.9172777265       12.4983156339        3.9575772614
  H        28.8943366608       10.5981818077        2.6973768022
  H        25.2009852775       11.1913095001        4.8195426885
  H        26.2418248967       13.0815086471        6.0837146923
  H        27.2151543890       11.6603087135        1.2385759052
  H        33.3000226685       14.2036355844        6.4447784433
  H        33.4089310154       14.4119847034        9.5981897891
  H        32.1204442482       18.4940517608        5.1459741284
  H        30.2365769761       14.1894672768        8.0729231932
  H        16.1191514895        2.9631575444       12.1305920419
  H        14.9539084938        4.8201908690       13.3232131923
  H        17.3650211086        7.6859075450       11.2089889305
  H        18.5138230205        5.8183538478       10.0092198207
  H        16.7535880301        5.7394815637       14.7716392620
  H        44.8278364940       32.1401603741       11.9771413670
  H        45.9370465755       30.3412175583       13.3065436511
  H        43.6820865157       27.3781038094       11.1524316460
  H        42.5994364767       29.1899216145        9.8098467067
  H        44.2299801213       29.4365247855       14.7689421963
  H        14.8510495224        8.5461986895       11.3633506669
  H        44.8998706332       32.2339165515        3.9318408168
  H        46.0246436009       30.4128684878        2.6522654492
  H        43.7634618660       27.4839502725        4.8454391600
  H        42.6457347353       29.3175306415        6.1245305388
  H        44.2681947586       29.4702772602        1.2181856975
  H        35.0138860200       26.6297568223        4.6444448248
  H        36.6049595481       35.1339583341        8.1806784163
  H        16.1443672692        3.0127869642        3.9033264764
  H        14.9747048176        4.8560536273        2.6876481670
  H        17.3945305153        7.7472718811        4.7565463258
  H        18.5416897819        5.8933780388        5.9842003008
  H        16.7645964395        5.7553958239        1.2193306610
  H        36.2782698305       34.4824929250        6.2732650647
  H        36.3802151332       34.2093287943        9.4998539568
  H        40.5788766969       33.2013045097        5.1542256717
  H        17.4708982936        1.9468789116        7.9741746700
  H        28.9571988425       19.2179674809       12.3982674228
  H        28.9153226097       18.4917753228        3.7308110963
  H        30.2315324313       15.7944150256        3.8632164394
  H        31.5062585542       15.6916708450       12.5356896561
  H        28.4617369560       17.6210477139       14.8798879757
  H        29.5252088429       15.4774076429       14.5021317108
  H        31.6930784234       19.5976876977        1.0589201817
  H        32.1087216276       16.0917645335        2.0465831390
  H        28.1430296927       15.6932376096        1.9761767598
  H        32.8396267647       19.0278206059       15.6435790449
  H        18.8527044456        0.8687504579       12.3351186160
  H        40.5279121087       35.2290468227        3.9522056097
  H        42.3228642942       34.4176655774        3.5913023481
  H        22.0876581731        0.6915287503       12.3517142534
  H        11.5969682431       18.7129961315       12.3823785192
  H        52.2650426280       18.4312619904        3.6774989695
  H        49.2553854332       16.4771700016        3.5844245900
  H        10.1504278064       15.7983241639       12.2928646696
  H        50.8502039861       17.6925008248        3.9542496114
  H        10.0461869674       17.3946040378       12.0519632729
  H        20.2137830446        0.0019003937       12.0421554503
  H        39.1833869032       36.1241708620        3.6862894923
 Ni        30.9847044925       17.8462327911        2.9181176684
 Ni        31.0268370914       16.5985809421       -0.0005556365
 Ni        30.5281460594       18.7443011097       -0.8317815655
 Ni        30.0592120384       17.3519563584       13.0757210852
  O        10.6499668478       14.3650908798        5.4858244068
  O        12.6131956703       14.6575149891        6.5839226876
  O        49.1478667755       16.8459541556        7.9896324871
  O        50.3502437648       20.9359735333        5.6481099255
  O        48.3485327218       20.5933229973        6.6659096366
  O        11.0516233717       17.0538818067        6.5007114589
  O        50.3209412654       20.8816896998       10.4068371635
  O        48.3467023646       20.5867328366        9.3270843147
  O        49.5436762836       18.2484099710       10.0682145804
  O        12.3590340043       18.6246179604        7.9997099685
  O        48.6932224344       14.1485912433        6.7512804097
  O         8.2099178216       14.2103447340        9.3225136094
  O        10.7354139929       14.5066979491       10.6643333101
  O        12.5718504295       14.5828324123        9.3284855421
  O        22.8446299985        2.0426994555        5.4871720832
  O        21.6061123094        3.5926888440        6.5890610862
  O        42.0578570129       34.1369781672        7.9789681311
  O        37.9813383934       33.1370246260        5.5726092541
  O        39.2171976940       31.5751723343        6.6657964102
  O        20.3082862803        1.0393885811        6.5020362031
  O        38.0244830084       33.1853152497       10.4154419059
  O        39.2183239663       31.5830161557        9.3274306083
  O        40.6521123188       33.7690852799       10.0601661905
  O        18.2556299360        1.3757493191        7.9967869148
  O        44.6222032243       35.1005063405        6.7587546262
  O        24.2053408156       -0.0000088125        9.3208296887
  O        22.7530923477        2.0572417287       10.5836446832
  O        21.6248141799        3.5964577388        9.3432536135
  O        27.4967706296       18.7470729882        5.4906866572
  O        26.7634838767       16.9338972585        6.6537571361
  O        30.6660605317       19.4038615932        8.0156268195
  O        33.5389217132       16.3284241903        5.6475295625
  O        34.2773265963       18.1760023974        6.7398521033
  O        29.5737726673       17.0536046300        6.5831970655
  O        33.6117723822       16.3267389013       10.4108480123
  O        34.3051602032       18.2446546502        9.4063233003
  O        31.6574988504       18.3198380287       10.0934028365
  O        30.3247859505       15.1567254165        8.0787446725
  O        28.5498983058       21.0349124266        6.8343262008
  O        28.5133004608       20.9572532150        9.4040798186
  O        27.4581214370       18.6806313385       10.6562457311
  O        26.6942533510       16.9298650068        9.4128413179
  O        13.1486247298       18.6930446558       10.5873460121
  O        13.9195178067       16.9163384052        9.4051874829
  O        50.5960138041       19.3501632574        8.0203818780
  O        47.6839775905       16.3268169486       10.4171495762
  O        46.9514895003       18.1756905662        9.3249664225
  O        11.0698030414       17.0155062162        9.4896219334
  O        47.6755169192       16.3355105841        5.6533946140
  O        46.9255958639       18.2357212038        6.6637204063
  O        49.5685482598       18.3177030804        5.9822190625
  O        10.3186723741       15.1002191250        7.9970575867
  O        52.6707316654       21.0279149614        9.2418330169
  O        12.1468082373       20.8911975502        6.6732595487
  O        13.1078260534       18.6137731721        5.3256798596
  O        13.9573442662       16.9871843302        6.6652355249
  O        29.9971121492       14.4463027400       10.7279221758
  O        28.0901277740       14.6534953049        9.4945238858
  O        32.1371456484       16.8536072682        8.0655391416
  O        30.9650872779       20.9494788563       10.4070605682
  O        32.9462651567       20.6030480874        9.3358905468
  O        29.5677257183       17.0740510265        9.5725039354
  O        30.8595870447       20.8865327061        5.6456571427
  O        32.8724675179       20.5877629036        6.6629112662
  O        31.6834288147       18.2493538450        5.9826218765
  O        28.2889756733       18.6772049147        8.0688817125
  O        32.4932828921       14.2134449451        9.3266649950
  O        32.4048701538       14.2168264618        6.8225733542
  O        29.9134026773       14.4388699315        5.4859604446
  O        28.0377060003       14.5859564518        6.7527602929
  O        17.8892197118        1.9665319106       10.6627866097
  O        18.9562812504        3.5270419910        9.4079430486
  O        39.1686153108       34.1385983318        7.9971272226
  O        43.2801899018       33.0589258522       10.3316056353
  O        42.0343755717       31.5064827491        9.2415880809
  O        20.3174842206        1.0365323903        9.4802610868
  O        43.2760467144       33.1825134154        5.5749235851
  O        42.0052265987       31.5841076108        6.5830160232
  O        40.5788644813       33.7747141251        5.9358331658
  O        22.3671285630        1.3845246475        7.9979453149
  O        36.6727395814       35.0997155610        9.2332976232
  O        16.4455554600        0.0641947706        6.6682800070
  O        17.9365119815        2.0433453558        5.3263908842
  O        18.9191608845        3.5930645023        6.6659679900
  O        29.7826261389       18.7583245593        4.0944156484
  O        29.7810352597       18.8953369157       11.9835806381
  O        31.0670848057       16.2775299797        4.0067733951
  O        31.3449225791       16.4873620546       11.9938867293
  O        31.9465520869       16.9365261475        1.5764798693
  O        28.3800625143       16.6328801370        1.9146321267
  O        30.3666706965       15.9560022583       14.3822904259
  O        32.0397474828       19.5706289662       15.7484285290
  O        31.1324853079       19.4886361756        1.9987496374
  O        28.9709564791       18.2438632121       14.3264104108
  O        39.4567439556       35.2436701874        4.0019829495
  O        19.1407250832        0.0042415336       11.9905946921
  O        41.9695468900       35.1725289057        4.0872219279
  O        21.6910998080       -0.0696361595       11.8958366841
  O        51.3651318371       18.6143495698        4.0054243522
  O        10.7511089841       18.7472162907       11.9049225190
  O        50.0797933292       16.4127491502        4.0917114737
  O         9.5245448677       16.4830946967       11.9912149972
 Zr         9.2969400058       16.0529498418        6.1824089306
 Zr        49.8364829911       16.0067707704        9.7463415459
 Zr        22.0728575650        0.0289221732        6.1892345240
 Zr        42.4605011869       35.1526452494        9.8008405083
 Zr        29.5996219758       19.0772592683        6.2510731420
 Zr        29.5851286327       19.1886121991        9.8253378492
 Zr        11.0381443005       19.0519265546        9.8277210153
 Zr        11.0439889203       19.1548615251        6.2509678194
 Zr        31.3553573835       16.1087100460        9.8467039045
 Zr        31.3847680006       16.0192909292        6.2661070966
 Zr        18.6006349881       -0.0022382756        9.7634264193
 Zr        18.5061792010       -0.0083687399        6.2134780833
 Zr        12.3024234499       16.3238519498        7.9903016533
 Zr        48.6162689998       18.8330688387        8.0099692020
 Zr        20.3147168086        2.4727305809        7.9906350077
 Zr        40.6425682316       32.6859985744        7.9781399844
 Zr        28.3429314209       16.3428354567        8.0895757393
 Zr        32.6317074231       18.8435747289        8.0445342055
  H        29.1933292285       16.6537086660        1.3470671635
  H        31.1202513366       20.2520754112        2.5981436118
