     576
 i =      272, E =     -4780.0403248744
  C        11.8587106923       14.0534842866        5.7415874442
  C        12.4562140857       12.8905154110        5.0233205046
  C        11.7045732315       12.1717174761        4.0815244803
  C        12.2809398170       11.1095167803        3.3891578498
  C        13.6214567289       10.7395970903        3.6170287145
  C        14.3545763895       11.4430375591        4.5906300405
  C        13.7816869778       12.5080019608        5.2821538817
  C        14.2610242370        9.6489777107        2.8436139531
  C        14.2563868939        9.6569313017        1.4219126202
  C        13.7431422028       10.7590191736        0.6680035266
  C        49.1268282539       21.2332404682        5.8796619024
  C        48.5500890156       22.4011965437        5.1525635034
  C        49.3001454308       23.0686063629        4.1716555440
  C        48.7331827136       24.1077350022        3.4384611642
  C        47.4026065075       24.5092733422        3.6670345211
  C        46.6716199347       23.8602938235        4.6804456437
  C        47.2340929580       22.8153903790        5.4097824721
  C        46.7723608311       25.5869949905        2.8697959648
  C        46.7612296545       25.5573329792        1.4480403879
  C        47.2611070977       24.4422021067        0.7045646568
  C        14.8603952683        8.5706367772        0.7086383649
  C        14.8918317302        8.5970346054        3.5202464083
  C        49.1131853356       21.2034606004       10.1454069415
  C        48.5277503127       22.3647549650       10.8726585309
  C        49.2670051609       23.0256487946       11.8654260279
  C        48.6905918336       24.0601441024       12.5969117278
  C        47.3601296487       24.4567702393       12.3587236855
  C        46.6396705189       23.8116673715       11.3353638011
  C        47.2133056580       22.7758122714       10.6035739949
  C        46.7216315049       25.5317203539       13.1497368675
  C        46.7333424092       25.5280964023       14.5714364374
  C        47.2487602890       24.4288660838       15.3278056235
  C        40.6369197404       17.1627133123       15.3246762607
  C        40.6578247686       17.1892577644       12.5160301829
  C        11.8829468752       14.0865112117       10.2855125325
  C        12.4722983075       12.9106970453       10.9897130321
  C        11.7147994977       12.1774939875       11.9158287880
  C        12.2814172374       11.0950323758       12.5842172218
  C        13.6202683932       10.7213883893       12.3524318157
  C        14.3582203094       11.4369561714       11.3916140629
  C        13.7927617767       12.5181208671       10.7189429988
  C        14.2538949890        9.6246441586       13.1228282837
  C        14.2526161673        9.6446200934       14.5446653532
  C        13.7426251551       10.7535093558       15.2917486543
  C        22.5111500916        3.2441536531        5.7530438074
  C        23.2240039733        4.3495963208        5.0530004280
  C        24.2189809686        4.0703229253        4.1045554243
  C        24.8436748075        5.1105686391        3.4216671684
  C        24.4888464931        6.4518488737        3.6673474965
  C        23.5224304341        6.7226234754        4.6530647555
  C        22.8930483964        5.6842695898        5.3342968701
  C        25.0921072518        7.5590877614        2.8915375691
  C        25.0625007414        7.5531849597        1.4701477451
  C        24.3601047324        6.5540244851        0.7240363583
  C        38.2989348175       31.9286929421        5.8519527109
  C        37.5592914927       30.8398599408        5.1495924587
  C        36.5954535332       31.1464508154        4.1766781867
  C        35.9679278910       30.1281155039        3.4643652311
  C        36.2892428044       28.7773973778        3.7022745478
  C        37.2222467610       28.4781828696        4.7129613795
  C        37.8538386306       29.4954911041        5.4244814293
  C        35.6821899225       27.6885685493        2.9027071022
  C        35.7242139925       27.7030177376        1.4811651422
  C        36.4372238057       28.7038919132        0.7483089295
  C        25.6840797619        8.6240087058        0.7504453727
  C        25.6895798052        8.6335533246        3.5625452577
  C        38.3310088624       31.9617254364       10.1596133894
  C        37.6148918221       30.8885748152       10.9085876561
  C        36.6832482956       31.1978527678       11.9114878560
  C        36.0751081637       30.1803473884       12.6445925476
  C        36.3838734588       28.8274422485       12.3985115464
  C        37.2958732944       28.5279701043       11.3678441650
  C        37.9059665930       29.5420095514       10.6360910348
  C        35.7714760134       27.7284953523       13.1807216618
  C        35.7700862605       27.7233051361       14.6030721150
  C        36.4578574422       28.7143288616       15.3716747463
  C        46.1353943490       26.6207749789       15.2815539633
  C        46.0877010268       26.5800750951       12.4736612647
  C        22.4602286200        3.2559363279       10.2575373194
  C        23.1523784729        4.3654298852       10.9802352603
  C        24.1539608112        4.0812831196       11.9221108684
  C        24.7795923345        5.1128770590       12.6179127815
  C        24.4237983561        6.4580448482       12.3942392943
  C        23.4456135038        6.7354423863       11.4205995384
  C        22.8151976825        5.7041535843       10.7254223726
  C        25.0517811126        7.5573908424       13.1686676660
  C        25.0419653151        7.5519215314       14.5912887029
  C        24.3484748875        6.5546122063       15.3472094018
  C        26.6209024613       17.8579036164        5.7801677645
  C        25.3149139846       17.9013580172        5.0513110992
  C        25.0459840510       18.9062432999        4.1080259660
  C        23.8331052351       18.9232904181        3.4213007073
  C        22.8502825055       17.9407503328        3.6586677312
  C        23.1149358652       16.9584098761        4.6316225585
  C        24.3305278192       16.9345812145        5.3140364986
  C        21.5757531581       17.9277350755        2.8964013643
  C        21.5758453257       17.9102986906        1.4741105514
  C        22.7813399462       17.7884780120        0.7134576552
  C        34.4421729858       17.1959135026        5.9246560112
  C        35.7359249571       17.1486452460        5.1806772809
  C        35.9328887144       16.1949369350        4.1698218780
  C        37.1114145740       16.1894081194        3.4287176324
  C        38.1248914692       17.1344888716        3.6817704379
  C        37.9304400407       18.0668011431        4.7184679370
  C        36.7484076156       18.0794689127        5.4550275623
  C        39.3791912412       17.1482685998        2.8966229613
  C        39.3769423622       17.1758194069        1.4754616593
  C        38.1718815203       17.3114636383        0.7167926869
  C        20.3293491885       17.9294544300        0.7657656738
  C        20.3515762643       17.9294919836        3.5795856085
  C        34.4812602951       17.2465906476       10.1786450608
  C        35.7834541932       17.1819788719       10.9049604541
  C        35.9947562704       16.2090378405       11.8928221759
  C        37.1795798706       16.1983742313       12.6231807175
  C        38.1803935869       17.1596641323       12.3835595503
  C        37.9749382288       18.1081657911       11.3647077458
  C        36.7874304461       18.1244249637       10.6380928114
  C        39.4263589336       17.1819870526       13.1793087910
  C        39.4012778942       17.1943500726       14.5999639062
  C        38.1831889378       17.3186045733       15.3400583298
  C        35.1328988142       26.6453140538       15.3031071103
  C        35.1854168324       26.6574914190       12.4938731921
  C        26.5694142295       17.8260170049       10.3219543279
  C        25.2537746777       17.8699036965       11.0287670339
  C        24.9940013947       18.8709115972       11.9767249242
  C        23.7760631952       18.8978662786       12.6502804219
  C        22.7900129750       17.9225597366       12.4006566483
  C        23.0451159817       16.9452356647       11.4217150522
  C        24.2634187133       16.9171493307       10.7454603060
  C        21.5268295741       17.9048122954       13.1739775977
  C        21.5505312012       17.8957414596       14.5954614636
  C        22.7691897122       17.7805347176       15.3371400328
  C        14.0461220682       17.8289556414       10.2886146738
  C        15.3503145418       17.8862324744       11.0139246023
  C        15.6069771131       18.8903250658       11.9605121484
  C        16.8158145829       18.9112886414       12.6535470062
  C        17.8017695294       17.9310390622       12.4217093770
  C        17.5499260838       16.9511551536       11.4429618713
  C        16.3405295017       16.9255826812       10.7516235929
  C        19.0706889441       17.9138923279       13.1905238420
  C        19.0692946731       17.9109686100       14.6128759234
  C        17.8623261715       17.8129231978       15.3742901098
  C        46.8068869428       17.2207417048       10.1600446845
  C        45.5198683172       17.1664506302       10.9092227252
  C        45.3130720289       16.1947928822       11.9003508330
  C        44.1336333675       16.1866542117       12.6399331586
  C        43.1326259237       17.1501953780       12.4090671642
  C        43.3369104557       18.1015717363       11.3916964069
  C        44.5168985731       18.1138646270       10.6535061537
  C        41.8803607794       17.1704844817       13.1969804581
  C        41.8847366782       17.1706768700       14.6184208229
  C        43.0930210498       17.2591370422       15.3787999311
  C        20.3161442139       17.9212687446       15.3207669423
  C        20.2945472220       17.8940719940       12.5079669228
  C        46.7859224785       17.2304335633        5.8910907144
  C        45.4816265603       17.1249850091        5.1794065065
  C        45.2629230686       16.1319141206        4.2128478481
  C        44.0745285691       16.1099867304        3.4874264150
  C        43.0765926273       17.0778344997        3.7125414361
  C        43.2845217686       18.0384722846        4.7196341154
  C        44.4741313344       18.0672660164        5.4396337060
  C        41.8325224520       17.1096105189        2.9139166314
  C        41.8605240766       17.1374471423        1.4935546270
  C        43.0815510957       17.2410280796        0.7553481800
  C        46.1532085392       26.6372177712        0.7263096250
  C        46.1624814178       26.6561332977        3.5359489691
  C        14.0452797425       17.8312312761        5.7085666511
  C        15.3662385008       17.9043524915        5.0175496457
  C        15.6410484701       18.9203393335        4.0900483137
  C        16.8700960016       18.9565284756        3.4352144430
  C        17.8518629912       17.9757730836        3.6819939298
  C        17.5838510014       16.9885380100        4.6476172866
  C        16.3569051737       16.9519823851        5.3061131702
  C        19.1189484584       17.9501682750        2.9127611449
  C        19.0945228511       17.9285381389        1.4911459180
  C        17.8744732691       17.8207654940        0.7505248807
  C        28.8098471703       14.0917668337       10.3907900207
  C        28.1911127383       12.9201343354       11.0788201401
  C        28.9095648031       12.1843127976       12.0323750632
  C        28.3081667311       11.1101069278       12.6833210341
  C        26.9740075156       10.7496631056       12.4058318323
  C        26.2771339453       11.4669017757       11.4170567427
  C        26.8768502792       12.5405752184       10.7635822054
  C        26.3026476748        9.6710079996       13.1663390016
  C        26.2872020016        9.6982520200       14.5873244969
  C        26.7901314919       10.8113436826       15.3332991981
  C        32.1824097547       21.2437332459       10.1405197930
  C        32.7817546436       22.4077755983       10.8637396914
  C        32.0312580556       23.0880422596       11.8349679171
  C        32.6014418552       24.1268347189       12.5651240637
  C        33.9382504696       24.5126590990       12.3461041615
  C        34.6720035713       23.8495107629       11.3445735783
  C        34.1035881441       22.8057746824       10.6157615998
  C        34.5649106589       25.5880605019       13.1491605798
  C        34.5469360583       25.5612859528       14.5708184097
  C        34.0317019210       24.4471324955       15.3061682692
  C        25.6778433049        8.6200727162       15.3057921416
  C        25.6679897713        8.6191869252       12.4927908630
  C        32.0833993783       21.2060591957        5.8820040333
  C        32.6560168629       22.3691829050        5.1372381266
  C        31.9173899443       23.0277665902        4.1417260991
  C        32.4922469257       24.0634842936        3.4062018073
  C        33.8189230200       24.4725912906        3.6497730067
  C        34.5380120145       23.8283286351        4.6745122891
  C        33.9688422145       22.7876757284        5.4036423611
  C        34.4600691268       25.5578255106        2.8701551979
  C        34.4906022849       25.5470604019        1.4485287283
  C        34.0031375761       24.4415348465        0.6826619424
  C        40.6243085722       17.1492591251        0.7686444630
  C        40.6013750012       17.1321175089        3.5777214411
  C        28.7385616516       14.0668115957        5.8175007246
  C        28.1278873283       12.9211664166        5.0787145763
  C        28.8644045553       12.2163998836        4.1143066742
  C        28.2800517344       11.1628827214        3.4151639294
  C        26.9438600941       10.7860548874        3.6574791022
  C        26.2246310387       11.4768393363        4.6506140255
  C        26.8068269317       12.5320452631        5.3500845042
  C        26.3001981499        9.6966243870        2.8850237469
  C        26.2889396151        9.7107729226        1.4634580317
  C        26.7898528083       10.8181096731        0.7093132421
  C        18.1354318812        3.1810249963       10.3172220402
  C        17.4062361867        4.2782666781       11.0158893990
  C        16.3903570629        3.9999718036       11.9432498386
  C        15.7426966626        5.0400010464       12.6067269431
  C        16.0948053241        6.3836873314       12.3671352595
  C        17.0843722901        6.6531518500       11.4035530591
  C        17.7334032338        5.6157601857       10.7385230817
  C        15.4704507416        7.4913883864       13.1301468111
  C        15.4857385331        7.4907062543       14.5518530893
  C        16.1873854793        6.4971445484       15.3050089523
  C        42.9458786417       31.8595518939       10.0728700073
  C        43.6462316077       30.7718573629       10.8167998789
  C        44.5916164832       31.0931755845       11.8030119696
  C        45.1972713334       30.0876138060       12.5506970328
  C        44.8709698167       28.7345352439       12.3357195853
  C        43.9453075833       28.4202124728       11.3223421162
  C        43.3365546598       29.4253604224       10.5742623432
  C        45.4885056222       27.6552219095       13.1389207097
  C        45.4926920802       27.6808908784       14.5606150733
  C        44.8057004134       28.6889870277       15.3072612165
  C        14.8566926719        8.5631509841       15.2642101496
  C        14.8751862127        8.5631520487       12.4515432357
  C        42.9464953299       31.9616537823        5.8089922585
  C        43.6917928322       30.8855288047        5.0956037670
  C        44.6562279746       31.1914454320        4.1231426071
  C        45.2777468126       30.1718638445        3.4054117794
  C        44.9541623875       28.8215228297        3.6432030278
  C        44.0208936974       28.5238527461        4.6541869969
  C        43.3926412014       29.5406119823        5.3663810439
  C        45.5631203738       27.7241149644        2.8579175084
  C        45.5333558954       27.7174295426        1.4366181020
  C        44.8270068927       28.7076359059        0.6836556524
  C        35.1066882906       26.6369028633        0.7482831302
  C        35.0675391524       26.6156898280        3.5585261861
  C        18.1485973707        3.2470234812        5.7065730368
  C        17.4300729574        4.3438288946        4.9972231776
  C        16.4147913821        4.0525876288        4.0737183428
  C        15.7665348272        5.0832413055        3.3983191878
  C        16.1212304255        6.4284626857        3.6210745860
  C        17.1127165305        6.7118088444        4.5782256305
  C        17.7603510987        5.6828814910        5.2579999206
  C        15.4907455757        7.5241676089        2.8486408254
  C        15.4967180158        7.5075892752        1.4275112112
  C        16.1935614103        6.5059355764        0.6808224091
  H        10.6724760980       12.4659259708        3.9044353606
  H        11.6946698228       10.5510871466        2.6625626381
  H        15.3915556207       11.1683176427        4.7724787682
  H        14.3510920695       13.0711226822        6.0177130125
  H        13.3760290935       11.6310978567        1.2013182421
  H        50.3228782839       22.7486190107        3.9869586151
  H        49.3196682156       24.6230679413        2.6809301481
  H        45.6420807874       24.1609524400        4.8635346353
  H        46.6630311261       22.2900072430        6.1717413386
  H        47.6296083449       23.5758153329        1.2462617654
  H        14.8721537115        8.5882547434        4.6085529826
  H        50.2871099458       22.7029360763       12.0602575314
  H        49.2689781089       24.5757388471       13.3603263959
  H        45.6102068852       24.1087528406       11.1463821203
  H        46.6524630619       22.2534857486        9.8321376058
  H        47.6074620320       23.5517201350       14.7968974641
  H        40.6648870086       17.1532091091       11.4283678865
  H        48.6869730074       14.0948543594        7.7999722686
  H        10.6812948472       12.4664902053       12.0931685405
  H        11.6896205463       10.5245739891       13.2968593974
  H        15.3936802668       11.1591408358       11.2057258845
  H        14.3650862111       13.0875218485        9.9904275193
  H        13.3757271534       11.6220902490       14.7531057507
  H        47.9301571582       14.2179824492        9.7109004375
  H        47.7800448566       14.3732406039        6.4950239262
  H        49.0840703437       18.5526548174       10.8675145264
  H        10.4159923337       14.1342617989        7.9987299170
  H        24.4801969761        3.0319597042        3.9129174925
  H        25.6154067685        4.8943493704        2.6860807539
  H        23.2416841641        7.7553790186        4.8489748301
  H        22.1244556703        5.8834893470        6.0770359175
  H        23.7995972244        5.7967106760        1.2643053992
  H        36.3632749099       32.1904994623        3.9802537104
  H        35.2215239443       30.3702778706        2.7109859139
  H        37.4781535840       27.4381555421        4.9046655764
  H        38.6001027990       29.2715341128        6.1831214229
  H        36.9985962798       29.4536895702        1.2980700474
  H        25.7261916085        8.6154987483        4.6502969442
  H        36.4554131397       32.2420660847       12.1133771338
  H        35.3461635746       30.4266145924       13.4135227370
  H        37.5475153170       27.4878626791       11.1713305470
  H        38.6312459398       29.3150708585        9.8584820484
  H        37.0359681937       29.4719862784       14.8503676322
  H        46.1091323581       26.5874568616       11.3856256755
  H        44.6683913928       35.1162698614        7.8139457369
  H        24.4328564102        3.0435489719       12.0904130748
  H        25.5599241521        4.8858871896       13.3411838286
  H        23.1598439558        7.7695042862       11.2388321896
  H        22.0440110476        5.9152818724        9.9882325561
  H        23.7783853221        5.7982369306       14.8155795108
  H        44.9541707059       34.3906886374        9.6953681795
  H        44.9021830441       34.2069517816        6.4906319246
  H        40.6666604416       33.2094352718       10.8533425307
  H        23.1502238233        1.9580865641        8.0052984259
  H        25.7951112919       19.6757496357        3.9346681929
  H        23.6294848886       19.7090373278        2.6968054864
  H        22.3678488801       16.1909906689        4.8240875030
  H        24.5451411996       16.1635574805        6.0505087993
  H        23.7217858896       17.6696555380        1.2434055088
  H        35.1450409443       15.4694367951        3.9789727085
  H        37.2654376623       15.4423115249        2.6530959532
  H        38.7059852065       18.8035002631        4.9177990773
  H        36.5800572754       18.8138769065        6.2394112466
  H        37.2333881741       17.4397661600        1.2483524503
  H        20.3586059145       17.9667155829        4.6675590047
  H        35.2105173947       15.4799590991       12.0832602826
  H        37.3444394525       15.4409259932       13.3863437442
  H        38.7423338252       18.8561942879       11.1764602706
  H        36.6046075028       18.8737926600        9.8715237831
  H        37.2532617899       17.4504416580       14.7943485470
  H        35.1653584902       26.6830537165       11.4060068954
  H        28.5098916005       21.0847181835        7.9637018386
  H        25.7603827259       19.6185045167       12.1684970642
  H        23.5734561199       19.6792709403       13.3795364344
  H        22.2922710572       16.1848698688       11.2240876805
  H        24.4773224107       16.1513284489       10.0036332414
  H        23.7001745148       17.6557822032       14.7922284511
  H        28.9913903749       21.7251408652        9.7710217295
  H        29.1582971251       21.7408889615        6.6127137061
  H        32.1145155147       18.5460187844       10.9707926520
  H        27.4020238400       19.0735432629        8.0746567653
  H        14.8486667229       19.6497061063       12.1377865285
  H        17.0114955218       19.6960551716       13.3811326063
  H        18.3010693515       16.1866238964       11.2552664658
  H        16.1341301403       16.1559326590       10.0116941966
  H        16.9196771741       17.6984393067       14.8469991236
  H        46.0933522358       15.4598693138       12.0837593787
  H        43.9720967508       15.4255711755       13.4001141609
  H        42.5712197701       18.8529512300       11.2103037578
  H        44.6924503757       18.8623160753        9.8844269675
  H        44.0356463310       17.3725758913       14.8509838829
  H        20.2882382298       17.9239341196       11.4198512117
  H        46.0401125372       15.3931338334        4.0309446557
  H        43.9069434695       15.3408489499        2.7366275469
  H        42.5177082738       18.7889544282        4.8998731997
  H        44.6578753520       18.8287307663        6.1935258914
  H        44.0154085607       17.3393831580        1.3011656596
  H        46.1994081636       26.6826864323        4.6233916642
  H        52.7411344881       21.0626043177        8.1946992568
  H        14.8816262219       19.6753776078        3.8990383152
  H        17.0823477708       19.7474152277        2.7189984591
  H        18.3330685628       16.2247784377        4.8457555223
  H        16.1346192664       16.1770474421        6.0356675642
  H        16.9410580131       17.7122885127        1.2945890525
  H        52.3222417321       21.6732006722        6.2943500182
  H        52.0130516933       21.7019449677        9.4956038427
  H        49.0673594710       18.6076536880        5.2041916841
  H        13.2475206759       19.0162734496        7.9772470684
  H        29.9361455831       12.4713023099       12.2492552840
  H        28.8668846561       10.5372028476       13.4202537321
  H        25.2460976725       11.1985072091       11.1960094217
  H        26.3374518244       13.1160259674       10.0152424261
  H        27.1526485815       11.6801889855       14.7923293020
  H        31.0047670869       22.7750079493       12.0112996792
  H        32.0136072460       24.6551189526       13.3126730479
  H        35.7068957854       24.1369516914       11.1701172383
  H        34.6752660928       22.2680601375        9.8626839041
  H        33.6822473381       23.5782332370       14.7558988975
  H        25.7004622420        8.5989289710       11.4048807848
  H        30.8923760187       22.7118959786        3.9577639292
  H        31.9122466424       24.5770827390        2.6422454139
  H        35.5642971321       24.1325805859        4.8697524726
  H        34.5305628651       22.2685595876        6.1767265768
  H        33.6330215970       23.5673162322        1.2103742189
  H        40.5928081012       17.0826077019        4.6648822046
  H        32.5215439252       14.1437782807        8.2501114248
  H        29.8981057183       12.5027537754        3.9338247138
  H        28.8583893854       10.6124479570        2.6762092960
  H        25.1912037550       11.1972437206        4.8450910815
  H        26.2492663434       13.0808989918        6.1054215629
  H        27.1510383903       11.6923817955        1.2429890457
  H        33.2971759371       14.1924262808        6.4371719739
  H        33.4108986532       14.3976040682        9.6084785014
  H        32.1805326769       18.5565581942        5.2113455808
  H        30.2223320714       14.1869575470        8.0714915445
  H        16.1181533588        2.9634927255       12.1295658502
  H        14.9531258620        4.8207107200       13.3222811707
  H        17.3670268469        7.6859918949       11.2105780268
  H        18.5156185807        5.8183577737       10.0108526919
  H        16.7540455092        5.7398916218       14.7714949014
  H        44.8278428369       32.1402572457       11.9772857098
  H        45.9370773608       30.3413799433       13.3066960263
  H        43.6827841500       27.3781267609       11.1520581484
  H        42.6001626577       29.1900089522        9.8093873741
  H        44.2303868207       29.4367969857       14.7689730432
  H        14.8514623417        8.5464100145       11.3633223969
  H        44.8996472336       32.2341319050        3.9315568874
  H        46.0245449156       30.4131258689        2.6520787766
  H        43.7641585931       27.4841035501        4.8459508140
  H        42.6463348815       29.3177829924        6.1250064294
  H        44.2686079889       29.4706042006        1.2182343041
  H        35.0175860312       26.6283282660        4.6457130335
  H        36.6052714438       35.1340638287        8.1806231539
  H        16.1436637265        3.0130220622        3.9040093908
  H        14.9741709550        4.8564583048        2.6882582068
  H        17.3963112470        7.7472594716        4.7550693597
  H        18.5433380215        5.8933121416        5.9826513350
  H        16.7651004751        5.7557791675        1.2192666685
  H        36.2787956325       34.4823797894        6.2731198135
  H        36.3810406564       34.2090212015        9.4994395631
  H        40.5796912325       33.2021070932        5.1537890452
  H        17.4708272517        1.9473498102        7.9740837824
  H        28.9425270463       19.3981143122       12.4648698436
  H        28.9108236909       18.8760524464        3.7500993015
  H        30.7379153384       15.4738781049        3.8179532403
  H        31.2673764796       15.6170813382       12.4858998409
  H        27.9257519859       17.8118163708       14.5939276604
  H        29.4731261003       15.3950660806       14.4506148248
  H        31.8205924769       18.9002155029        1.1950340488
  H        33.0621591392       17.0275968739        1.6163899039
  H        28.2745131521       17.0512355092        2.3415773344
  H        32.1369343508       18.7572866972       14.3214767769
  H        18.8536344855        0.8690710733       12.3351918647
  H        40.5281521574       35.2289452467        3.9520492158
  H        42.3242744078       34.4191596801        3.5902501126
  H        22.0876095166        0.6920885228       12.3515783733
  H        11.5968242739       18.7129376709       12.3825498420
  H        52.2649087847       18.4310143770        3.6772277445
  H        49.2551021417       16.4770730701        3.5845821169
  H        10.1495988326       15.7981725233       12.2930493097
  H        50.8499829172       17.6924071869        3.9542895281
  H        10.0458085472       17.3944100304       12.0519918884
  H        20.2150407971        0.0022939045       12.0419041004
  H        39.1838535087       36.1246097410        3.6865900867
 Ni        30.9027881380       17.6935982918        2.8352965503
 Ni        31.3288666657       16.6133990821       -0.3320337848
 Ni        29.8434089316       18.8913566098       -0.2552981690
 Ni        30.0964498443       17.4805838467       12.9964895759
  O        10.6499597645       14.3650858479        5.4858125090
  O        12.6131900102       14.6575163043        6.5838812571
  O        49.1482062744       16.8458924752        7.9897172910
  O        50.3502954438       20.9359280751        5.6480783900
  O        48.3485939919       20.5933783570        6.6658985429
  O        11.0517327908       17.0538671594        6.5006716407
  O        50.3210304219       20.8817252315       10.4068514100
  O        48.3467774356       20.5868389968        9.3271583790
  O        49.5437622262       18.2484570533       10.0682982414
  O        12.3590374959       18.6245764728        7.9996825970
  O        48.6932853422       14.1485259377        6.7512916923
  O         8.2098650044       14.2103324819        9.3225525436
  O        10.7353724193       14.5067321566       10.6643305033
  O        12.5718140489       14.5828281321        9.3285113148
  O        22.8444023271        2.0430345211        5.4872937300
  O        21.6050524758        3.5919090405        6.5900672128
  O        42.0581671230       34.1373618138        7.9789745226
  O        37.9812772360       33.1370217244        5.5724877803
  O        39.2174772772       31.5753606741        6.6661011148
  O        20.3084013506        1.0394729921        6.5020644653
  O        38.0246826212       33.1855190023       10.4155409124
  O        39.2187843954       31.5833805201        9.3270023238
  O        40.6522463719       33.7693129574       10.0601738994
  O        18.2554508836        1.3760953422        7.9967803606
  O        44.6222144428       35.1005462385        6.7587709359
  O        24.2054163438        0.0000275254        9.3207853195
  O        22.7529025099        2.0579383523       10.5838169766
  O        21.6241006992        3.5957056963        9.3420696447
  O        27.4991184602       18.7502148558        5.4862795423
  O        26.7623848013       16.9376206397        6.6519541183
  O        30.6708006332       19.4041217398        8.0551130737
  O        33.5911292538       16.2788786701        5.6674565978
  O        34.2757099255       18.1721210086        6.7356839249
  O        29.5782134834       17.0592064282        6.5801299656
  O        33.6281556355       16.3282837943       10.4063155487
  O        34.3066084373       18.2494693687        9.4054306049
  O        31.6526127895       18.3173959043       10.1480315621
  O        30.3231418380       15.1527370845        8.0791391654
  O        28.5530948454       21.0326688719        6.8959130107
  O        28.5110194287       20.9614868801        9.4086815077
  O        27.4536091526       18.6771910192       10.6577871929
  O        26.6933461267       16.9275865161        9.4108656659
  O        13.1484134029       18.6930729671       10.5873833503
  O        13.9192630144       16.9162405291        9.4049821762
  O        50.5963360206       19.3503486831        8.0204390605
  O        47.6834698665       16.3270655591       10.4172475761
  O        46.9526959006       18.1761299781        9.3238967295
  O        11.0697292889       17.0155234549        9.4896778516
  O        47.6764512122       16.3353955043        5.6532165383
  O        46.9285669339       18.2357028209        6.6653291730
  O        49.5688333644       18.3177355158        5.9822362062
  O        10.3186360581       15.1001174695        7.9970727686
  O        52.6707596135       21.0279101740        9.2418277042
  O        12.1468537913       20.8911795025        6.6731817306
  O        13.1082950232       18.6136039598        5.3255814127
  O        13.9571900178       16.9869522136        6.6654664510
  O        29.9916047913       14.4396694571       10.7287910944
  O        28.0886778152       14.6541943171        9.4929981637
  O        32.1440552700       16.8577864956        8.0715105532
  O        30.9700000542       20.9602607362       10.4028823246
  O        32.9509858061       20.6025929414        9.3372715377
  O        29.5667332492       17.0760857288        9.5776386930
  O        30.8592855828       20.8953662290        5.6577643519
  O        32.8748767174       20.5857570443        6.6642093606
  O        31.6861491170       18.2500544924        5.9878462512
  O        28.2878245722       18.6763183764        8.0717510869
  O        32.4961507582       14.2097482597        9.3273492716
  O        32.4064586345       14.2112993044        6.8249785066
  O        29.9142149379       14.4383475414        5.4829896199
  O        28.0391221643       14.5878723257        6.7513909220
  O        17.8892065017        1.9666056113       10.6628008403
  O        18.9561803545        3.5271120164        9.4079951885
  O        39.1685933358       34.1387304547        7.9971328197
  O        43.2802170677       33.0589424851       10.3316946171
  O        42.0344151015       31.5064743705        9.2416306224
  O        20.3176242388        1.0366986683        9.4801878804
  O        43.2760704232       33.1826032197        5.5748876735
  O        42.0052501792       31.5841223716        6.5829859678
  O        40.5789384475       33.7749179042        5.9358088703
  O        22.3673227086        1.3845433462        7.9979368052
  O        36.6727753347       35.0997408459        9.2332937054
  O        16.4456356097        0.0642358257        6.6682825051
  O        17.9364839227        2.0433633675        5.3263744309
  O        18.9189708449        3.5931407656        6.6659280302
  O        29.8219511275       18.8313007029        4.0872621806
  O        29.7421353041       19.1204463973       11.9763362376
  O        31.3424265576       16.1919186274        4.0842916767
  O        31.3910567185       16.4099722327       11.9206943653
  O        32.2331824173       17.4477607927        1.3347909037
  O        29.1418647575       16.7749747020        1.9926482019
  O        30.2922128491       15.8279214331       14.1633714030
  O        31.3343528766       18.2411402843       14.5004842226
  O        30.9660630289       19.4931745454        1.2466570043
  O        28.6530336467       18.3999216171       14.3376070771
  O        39.4568227949       35.2438668558        4.0019951782
  O        19.1415249010        0.0045702257       11.9905170811
  O        41.9695064274       35.1726959955        4.0871131696
  O        21.6911839662       -0.0693338949       11.8959125540
  O        51.3651450209       18.6142716432        4.0054038444
  O        10.7510697092       18.7472142984       11.9049432926
  O        50.0796220954       16.4128146781        4.0916948617
  O         9.5239919060       16.4831258456       11.9912324452
 Zr         9.2968987410       16.0526847265        6.1824282180
 Zr        49.8361561700       16.0065835861        9.7463746931
 Zr        22.0735205500        0.0301459769        6.1888856939
 Zr        42.4611609073       35.1538450943        9.8009989644
 Zr        29.6135017984       19.0842458755        6.2811139157
 Zr        29.5759738841       19.1883198647        9.8572107634
 Zr        11.0379538582       19.0519086133        9.8276999605
 Zr        11.0438772537       19.1547852333        6.2510773873
 Zr        31.3636276595       16.0943736428        9.8542425691
 Zr        31.4029808393       16.0086234253        6.2735605788
 Zr        18.6013206612       -0.0010746532        9.7633729825
 Zr        18.5067971402       -0.0073792761        6.2136793781
 Zr        12.3018589370       16.3234828309        7.9903680630
 Zr        48.6167510926       18.8331602148        8.0102274940
 Zr        20.3152715614        2.4737634623        7.9905372134
 Zr        40.6436958168       32.6873875152        7.9780833725
 Zr        28.3565601839       16.3443174741        8.0925770215
 Zr        32.6310429335       18.8347067719        8.0639755679
  H        29.2017866583       17.1079501824        1.0482903954
  H        30.9873702986       15.2800188928        0.6945202266
  H        31.1590903546       20.4061475206        1.5162849559
  H        31.6654054276       15.0588965961        0.2989112010
