     570
 i =      289, E =     -4745.5633440490
  C        11.8587641817       14.0534638274        5.7415747479
  C        12.4561777729       12.8904426896        5.0233962254
  C        11.7044509867       12.1716811012        4.0816244136
  C        12.2807441660       11.1094628656        3.3892402414
  C        13.6212489486       10.7394434454        3.6170698114
  C        14.3544268769       11.4428456655        4.5906630098
  C        13.7816348057       12.5078502827        5.2822190644
  C        14.2606996638        9.6487596162        2.8436266059
  C        14.2559901922        9.6566768846        1.4219188966
  C        13.7428341327       10.7587907716        0.6679972153
  C        49.1267620867       21.2332924711        5.8796669086
  C        48.5499697062       22.4012441564        5.1526347211
  C        49.2999398838       23.0684783808        4.1715358503
  C        48.7330005665       24.1076161633        3.4383462743
  C        47.4024829335       24.5092821621        3.6670329342
  C        46.6715676243       23.8604655791        4.6806083838
  C        47.2340271389       22.8155501336        5.4099347208
  C        46.7722754999       25.5869962484        2.8697670082
  C        46.7610855342       25.5572741535        1.4480102370
  C        47.2609803678       24.4421560638        0.7045255519
  C        14.8598266823        8.5702857769        0.7086391076
  C        14.8915547921        8.5968368421        3.5202531733
  C        49.1131584197       21.2034245905       10.1453350084
  C        48.5277431948       22.3647732146       10.8725233241
  C        49.2668666374       23.0253733264       11.8655862106
  C        48.6905244858       24.0599444872       12.5970193314
  C        47.3601549726       24.4567906509       12.3586655002
  C        46.6398622902       23.8120311848       11.3349630526
  C        47.2134365123       22.7761150937       10.6032118690
  C        46.7216677109       25.5317500594       13.1496685880
  C        46.7333077851       25.5280748771       14.5713734434
  C        47.2487001634       24.4288452124       15.3277640778
  C        40.6314023572       17.1247921216       15.3264385401
  C        40.6564465366       17.1649055237       12.5174996500
  C        11.8829840202       14.0864691935       10.2854128317
  C        12.4722051534       12.9105868773       10.9895593761
  C        11.7147199017       12.1776177916       11.9158883458
  C        12.2812202748       11.0951611974       12.5843672344
  C        13.6199320514       10.7211256310       12.3523586073
  C        14.3578070042       11.4363423644       11.3912066556
  C        13.7924549652       12.5175037903       10.7184360167
  C        14.2534705845        9.6243611629       13.1227998756
  C        14.2521237325        9.6443195721       14.5446490549
  C        13.7422464574       10.7532560487       15.2917408600
  C        22.5123965932        3.2441607380        5.7534847904
  C        23.2283810741        4.3485598295        5.0547215409
  C        24.2261217537        4.0670008482        4.1097519444
  C        24.8545923809        5.1055021897        3.4276689668
  C        24.5010359088        6.4476681099        3.6704198327
  C        23.5317667108        6.7207684131        4.6527842155
  C        22.8986590907        5.6840951708        5.3333898938
  C        25.1077022996        7.5530737323        2.8942691474
  C        25.0802418555        7.5453239680        1.4728827922
  C        24.3773108414        6.5459527852        0.7277124874
  C        38.2976624256       31.9286461232        5.8522457168
  C        37.5538957179       30.8414949366        5.1508465821
  C        36.5858020911       31.1520232589        4.1832521106
  C        35.9517083514       30.1368183651        3.4722551274
  C        36.2703212414       28.7845839709        3.7053707139
  C        37.2082563411       28.4812987747        4.7104672288
  C        37.8461822320       29.4956535199        5.4211225940
  C        35.6552668849       27.6993420378        2.9061437403
  C        35.6913932557       27.7163115486        1.4843055465
  C        36.4053318428       28.7161652002        0.7511146842
  C        25.7034111253        8.6148509861        0.7524777002
  C        25.7048349647        8.6280320450        3.5644709727
  C        38.3299724616       31.9610221294       10.1602710193
  C        37.6109718912       30.8893939063       10.9100614548
  C        36.6760014590       31.2022628639       11.9090479918
  C        36.0620887609       30.1878648308       12.6418749995
  C        36.3680122170       28.8332998528       12.4005919563
  C        37.2845023144       28.5302596216       11.3747101929
  C        37.9000514886       29.5413294204       10.6426920544
  C        35.7482395096       27.7375655758       13.1828390384
  C        35.7391481487       27.7356567996       14.6055906368
  C        36.4268930955       28.7263780462       15.3745011175
  C        46.1352590607       26.6206968391       15.2815015999
  C        46.0877392832       26.5801203881       12.4736109393
  C        22.4605965493        3.2555719612       10.2577186710
  C        23.1540200936        4.3636984955       10.9811119333
  C        24.1564955178        4.0769793103       11.9213288102
  C        24.7841389076        5.1066321200       12.6180509808
  C        24.4294326941        6.4525289125       12.3970948846
  C        23.4500678765        6.7324892306       11.4252986191
  C        22.8178243160        5.7031174298       10.7289376824
  C        25.0606992577        7.5500350367       13.1712103685
  C        25.0569464959        7.5428840507       14.5939522486
  C        24.3644768439        6.5457216639       15.3509334972
  C        26.6037291871       17.8398750842        5.7792919655
  C        25.3034657636       17.9261743083        5.0494236373
  C        25.0592674907       18.9362024174        4.1058034775
  C        23.8453058406       18.9812667977        3.4215449726
  C        22.8418321171       18.0201275221        3.6593433994
  C        23.0823141004       17.0345388566        4.6351274674
  C        24.2957781553       16.9845664490        5.3168891091
  C        21.5702591190       18.0172121861        2.8938340362
  C        21.5719389784       17.9945026665        1.4716340437
  C        22.7788955888       17.8731129162        0.7132283952
  C        34.4252367203       17.2151286847        5.9157990115
  C        35.7170180517       17.1504101651        5.1726974828
  C        35.9133270996       16.1877062463        4.1704307940
  C        37.0955336319       16.1674814883        3.4353970134
  C        38.1139554094       17.1086151779        3.6828885911
  C        37.9203356617       18.0507797991        4.7113186329
  C        36.7358985431       18.0764488964        5.4434381735
  C        39.3696811929       17.1135606275        2.8984844443
  C        39.3686019104       17.1338982191        1.4767110271
  C        38.1639019257       17.2613524143        0.7159946069
  C        20.3253641203       18.0029249032        0.7629300897
  C        20.3455524651       18.0122011100        3.5759979097
  C        34.4783608592       17.2443122546       10.1788320679
  C        35.7820306404       17.1696008064       10.8999952824
  C        35.9914104480       16.1896692703       11.8817715151
  C        37.1762711892       16.1709968965       12.6117237683
  C        38.1793494647       17.1319029773       12.3797113817
  C        37.9763500540       18.0865322080       11.3656634883
  C        36.7894000605       18.1102152122       10.6382067199
  C        39.4238164467       17.1497872361       13.1787543685
  C        39.3964263966       17.1539213334       14.5999012313
  C        38.1770490128       17.2691121540       15.3391800661
  C        35.0957201066       26.6611267613       15.3060434923
  C        35.1637677352       26.6653537881       12.4962431307
  C        26.5837478619       17.7949633441       10.3600069572
  C        25.2652556400       17.8566540698       11.0545690976
  C        24.9904168652       18.8881690991       11.9651137973
  C        23.7667457154       18.9308248489       12.6266022973
  C        22.7900282552       17.9404333904       12.4029371767
  C        23.0580277055       16.9337506308       11.4578571054
  C        24.2812083960       16.8910580727       10.7917398199
  C        21.5246698122       17.9363350599       13.1728771726
  C        21.5483042253       17.9504340443       14.5941933030
  C        22.7674073440       17.8512229175       15.3371200924
  C        14.0461944027       17.8303698137       10.2872499478
  C        15.3505531393       17.8925060060       11.0106905655
  C        15.6074579614       18.9060633189       11.9470636184
  C        16.8162649016       18.9337280819       12.6393137144
  C        17.8014371604       17.9503960930       12.4174569173
  C        17.5491879983       16.9604019996       11.4490890227
  C        16.3399614112       16.9286665789       10.7576696884
  C        19.0695860191       17.9423647138       13.1868486456
  C        19.0670849694       17.9577602687       14.6091876610
  C        17.8597110388       17.8636638439       15.3705303735
  C        46.8065858573       17.2202176280       10.1605069368
  C        45.5195626707       17.1627421564       10.9108656503
  C        45.3155236901       16.1877318112       11.8994104793
  C        44.1362630893       16.1733345989       12.6393339517
  C        43.1317782901       17.1342433604       12.4122975239
  C        43.3337514565       18.0898104620       11.3981224704
  C        44.5135957240       18.1080683446       10.6591959666
  C        41.8783765589       17.1460114866       13.1997290929
  C        41.8802636410       17.1394705225       14.6215144353
  C        43.0872066087       17.2293724512       15.3837563713
  C        20.3131582160       17.9808367278       15.3181560823
  C        20.2938327986       17.9131753039       12.5053311235
  C        46.7838278651       17.2293926983        5.8913890270
  C        45.4779117142       17.1187352797        5.1812150546
  C        45.2596028937       16.1198686374        4.2202877090
  C        44.0700583404       16.0903729780        3.4965550660
  C        43.0691149123       17.0563093821        3.7172562902
  C        43.2767881147       18.0231465788        4.7186877241
  C        44.4677259612       18.0594253801        5.4370226802
  C        41.8240995693       17.0805638154        2.9181480883
  C        41.8526164071       17.1040981564        1.4973801583
  C        43.0740764466       17.2102170979        0.7602601695
  C        46.1530567135       26.6371450326        0.7262613343
  C        46.1623299483       26.6561109585        3.5358970981
  C        14.0451516891       17.8355539911        5.7098237603
  C        15.3654207072       17.9227562423        5.0198724993
  C        15.6280222312       18.9480053073        4.0987060031
  C        16.8548492181       19.0016635081        3.4413434023
  C        17.8468655046       18.0294602703        3.6794854352
  C        17.5909806211       17.0327546339        4.6388931500
  C        16.3659429458       16.9785841913        5.3001145260
  C        19.1134271863       18.0214328967        2.9090417474
  C        19.0898833824       17.9982118530        1.4874788138
  C        17.8708099755       17.8818315274        0.7467326010
  C        28.8073427843       14.0877883668       10.3897759082
  C        28.1933989191       12.9133386780       11.0739160431
  C        28.9193815676       12.1655215953       12.0127217874
  C        28.3195544620       11.0922368231       12.6660745655
  C        26.9798402109       10.7419533222       12.4036243300
  C        26.2757542244       11.4682625008       11.4264509341
  C        26.8732178124       12.5425346736       10.7720283365
  C        26.3121169937        9.6627772343       13.1667355998
  C        26.3051645143        9.6876438266       14.5879514249
  C        26.8126011848       10.7991903120       15.3330009473
  C        32.1775831530       21.2405461728       10.1448392597
  C        32.7698148361       22.4079621794       10.8660364795
  C        32.0131305387       23.0913017293       11.8309534476
  C        32.5772614436       24.1337564650       12.5603579911
  C        33.9146938515       24.5215469597       12.3477691223
  C        34.6544036752       23.8557768384       11.3519121034
  C        34.0922802067       22.8084643058       10.6233749222
  C        34.5360813357       25.5998853602       13.1515780240
  C        34.5081785576       25.5777343081       14.5735794804
  C        33.9843865818       24.4683972196       15.3099137980
  C        25.6961932470        8.6098475755       15.3076145259
  C        25.6731352958        8.6132267567       12.4941852773
  C        32.0758067542       21.2046738023        5.8846154456
  C        32.6416835025       22.3707088768        5.1420014806
  C        31.9003694022       23.0205605011        4.1430311074
  C        32.4672939210       24.0628232571        3.4109640163
  C        33.7891746348       24.4847820705        3.6572244790
  C        34.5115869537       23.8473995790        4.6847598269
  C        33.9499338303       22.8022290158        5.4129632141
  C        34.4258172160       25.5716975825        2.8752931925
  C        34.4498318597       25.5644180288        1.4527642736
  C        33.9547148006       24.4625989135        0.6864824216
  C        40.6170084277       17.1103526492        0.7709490443
  C        40.5918568585       17.1030534643        3.5805078509
  C        28.7412508849       14.0642681486        5.8250215121
  C        28.1307751084       12.9171531756        5.0890503137
  C        28.8673956202       12.2255430862        4.1152283784
  C        28.2885374729       11.1705547332        3.4140533581
  C        26.9568335291       10.7808570513        3.6613620193
  C        26.2374000197       11.4600613410        4.6625578711
  C        26.8146933507       12.5157292486        5.3657517884
  C        26.3168773783        9.6905221863        2.8869291402
  C        26.3080835957        9.7025015978        1.4648527119
  C        26.8110697066       10.8079440923        0.7091805881
  C        18.1353738558        3.1809213149       10.3171753822
  C        17.4060057154        4.2781034790       11.0157824696
  C        16.3900718171        3.9996992402       11.9430544000
  C        15.7423135333        5.0396528785       12.6065567435
  C        16.0943235464        6.3833817550       12.3670616264
  C        17.0840627312        6.6529402448       11.4036749683
  C        17.7331998895        5.6156325725       10.7386075284
  C        15.4698838852        7.4910115019       13.1301301888
  C        15.4850722408        7.4902899471       14.5518479381
  C        16.1866290400        6.4966720957       15.3050097518
  C        42.9457683291       31.8595736621       10.0728446701
  C        43.6461275278       30.7718415176       10.8167845501
  C        44.5914418884       31.0931701195       11.8030494708
  C        45.1971386567       30.0876242417       12.5507253738
  C        44.8709422997       28.7345384134       12.3356675648
  C        43.9454053001       28.4201938404       11.3221836359
  C        43.3366029705       29.4253374783       10.5741285616
  C        45.4885147196       27.6552466794       13.1388703636
  C        45.4925663156       27.6808306573       14.5605711506
  C        44.8054689313       28.6888669660       15.3072055259
  C        14.8560677149        8.5627714354       15.2642016767
  C        14.8747036786        8.5628192549       12.4515239847
  C        42.9464367702       31.9616545730        5.8090207103
  C        43.6916915263       30.8854818999        5.0955710835
  C        44.6561632273       31.1914140333        4.1231626897
  C        45.2776289413       30.1718312310        3.4053769849
  C        44.9540400072       28.8214986187        3.6431649497
  C        44.0207364087       28.5238304405        4.6541114172
  C        43.3925186311       29.5405828165        5.3663556140
  C        45.5629598514       27.7240750190        2.8578582126
  C        45.5331633360       27.7173432097        1.4365599235
  C        44.8267893593       28.7075308970        0.6835997647
  C        35.0683999314       26.6529779812        0.7517431257
  C        35.0402253252       26.6268542720        3.5622441942
  C        18.1485871874        3.2469783882        5.7065854998
  C        17.4299285479        4.3437378623        4.9972910318
  C        16.4145000628        4.0524247378        4.0739692281
  C        15.7661474943        5.0830210599        3.3985703398
  C        16.1209448347        6.4282563452        3.6210974092
  C        17.1126328902        6.7116838573        4.5780149814
  C        17.7603461737        5.6828081435        5.2578006377
  C        15.4903624927        7.5239107940        2.8486487170
  C        15.4960776434        7.5071906050        1.4275143703
  C        16.1928114982        6.5054650321        0.6808249324
  H        10.6723625688       12.4659155057        3.9045475540
  H        11.6944489212       10.5510907690        2.6626246191
  H        15.3914220047       11.1681546617        4.7724639876
  H        14.3511368327       13.0709468253        6.0177255269
  H        13.3758983996       11.6309551471        1.2012934094
  H        50.3226412082       22.7484351826        3.9867677645
  H        49.3194532327       24.6228728706        2.6807375316
  H        45.6421053896       24.1612894238        4.8638519186
  H        46.6630644347       22.2903224135        6.1720740780
  H        47.6295466653       23.5757958729        1.2462189289
  H        14.8720413191        8.5881583839        4.6085626692
  H        50.2868783293       22.7024611011       12.0605723532
  H        49.2688679874       24.5753265194       13.3606094581
  H        45.6105261385       24.1094128178       11.1457540119
  H        46.6527061517       22.2540776792        9.8314991971
  H        47.6074603371       23.5517123224       14.7968774426
  H        40.6653825343       17.1356176669       11.4296377607
  H        48.6870909868       14.0949698301        7.8000351447
  H        10.6813529882       12.4669366879       12.0934899467
  H        11.6894349928       10.5249666247       13.2972275008
  H        15.3931416339       11.1582199353       11.2050763370
  H        14.3647957364       13.0866256661        9.9897097663
  H        13.3755567843       11.6219354699       14.7531187056
  H        47.9302297211       14.2181685568        9.7108700269
  H        47.7800786827       14.3737396195        6.4952643740
  H        49.0842890571       18.5526492928       10.8675671556
  H        10.4161214999       14.1342799416        7.9986803417
  H        24.4864738687        3.0280780425        3.9200225935
  H        25.6283240001        4.8871660824        2.6948116330
  H        23.2517096745        7.7541338455        4.8465098046
  H        22.1280293479        5.8855008835        6.0734559504
  H        23.8164730195        5.7894193015        1.2687399139
  H        36.3550921647       32.1969621383        3.9899457159
  H        35.2018168356       30.3827995601        2.7235718007
  H        37.4626262216       27.4402757671        4.8988316064
  H        38.5955334370       29.2678274900        6.1756124479
  H        36.9682609683       29.4649312689        1.3006990243
  H        25.7395554729        8.6115377230        4.6522986323
  H        36.4493201208       32.2473159765       12.1078695764
  H        35.3303431730       30.4382001480       13.4068354249
  H        37.5352550755       27.4893033631       11.1814927429
  H        38.6278218171       29.3103674407        9.8685283284
  H        37.0071345410       29.4826720276       14.8536378698
  H        46.1093127689       26.5876043580       11.3855783059
  H        44.6683562548       35.1162408701        7.8139691292
  H        24.4345154612        3.0386756236       12.0874663173
  H        25.5653570732        4.8775978525       13.3397119318
  H        23.1649319222        7.7671221002       11.2457800817
  H        22.0459328163        5.9163119018        9.9930632984
  H        23.7931001291        5.7896342173       14.8203092957
  H        44.9540308836       34.3905309666        9.6952434554
  H        44.9020512175       34.2068722475        6.4906857487
  H        40.6662875827       33.2092925935       10.8532745318
  H        23.1503220635        1.9579644186        8.0053936870
  H        25.8284315589       19.6835304406        3.9236133538
  H        23.6607016142       19.7698346965        2.6951401347
  H        22.3187646725       16.2834256487        4.8267901433
  H        24.4927579207       16.2097889659        6.0538838919
  H        23.7207540416       17.7631155437        1.2427288882
  H        35.1240207076       15.4657213855        3.9755395755
  H        37.2458803567       15.4129137940        2.6664153135
  H        38.6984711729       18.7856441189        4.9071451659
  H        36.5703789906       18.8187609875        6.2208642562
  H        37.2230205926       17.3832609329        1.2448720773
  H        20.3517464915       18.0489075878        4.6639683563
  H        35.2053333720       15.4620908866       12.0698350024
  H        37.3382346238       15.4082884223       13.3702374495
  H        38.7452474454       18.8342268437       11.1823126205
  H        36.6099725437       18.8647922922        9.8759368358
  H        37.2463870250       17.3957645936       14.7935377583
  H        35.1511685401       26.6870136304       11.4081545406
  H        28.5075461524       21.0831108252        7.9750091433
  H        25.7458058295       19.6516048365       12.1356762646
  H        23.5533810653       19.7343330614       13.3282060709
  H        22.3113203044       16.1625723074       11.2799985807
  H        24.5039100603       16.1034578044       10.0757692496
  H        23.7005780439       17.7251504173       14.7962481147
  H        28.9939229031       21.7131188405        9.7791541103
  H        29.1465027541       21.7434747822        6.6107911291
  H        32.1454969933       18.5624078683       10.9600529637
  H        27.3495822631       19.0617581262        8.0837535700
  H        14.8492868308       19.6673188949       12.1165409694
  H        17.0128512882       19.7258714028       13.3585975679
  H        18.2997924087       16.1933559083       11.2696890440
  H        16.1330347555       16.1518098138       10.0254338673
  H        16.9177307022       17.7424183685       14.8436029138
  H        46.0978769467       15.4544047301       12.0803455659
  H        43.9776896972       15.4087938235       13.3966842213
  H        42.5661678904       18.8399075933       11.2193445097
  H        44.6862052405       18.8596915820        9.8924772856
  H        44.0302933487       17.3458529096       14.8574171477
  H        20.2883563341       17.9255989688       11.4168668915
  H        46.0383449965       15.3820827570        4.0409595628
  H        43.9042360322       15.3163391193        2.7503786069
  H        42.5086179292       18.7729624404        4.8960478874
  H        44.6499020844       18.8258603316        6.1863325425
  H        44.0071277640       17.3106687022        1.3070694888
  H        46.1993382614       26.6827464062        4.6233342779
  H        52.7410916656       21.0626529327        8.1945905556
  H        14.8603452859       19.6963653089        3.9148965700
  H        17.0574200075       19.7996283078        2.7301724078
  H        18.3487687336       16.2756893380        4.8300011068
  H        16.1534000023       16.1963790651        6.0249145656
  H        16.9372778998       17.7740319306        1.2907731283
  H        52.3221583333       21.6734544935        6.2947216862
  H        52.0131947314       21.7020791413        9.4956122626
  H        49.0669430491       18.6073842849        5.2041308115
  H        13.2475239509       19.0168791235        7.9774767968
  H        29.9518753188       12.4396999060       12.2167589007
  H        28.8836192252       10.5124031795       13.3934210205
  H        25.2407669741       11.2066856865       11.2160343352
  H        26.3271911290       13.1248135086       10.0338526245
  H        27.1764291079       11.6678298748       14.7924250074
  H        30.9853412149       22.7802487531       12.0027061234
  H        31.9838242987       24.6632946905       13.3025544249
  H        35.6896172098       24.1444972405       11.1815518108
  H        34.6695111764       22.2707163233        9.8745646565
  H        33.6297060254       23.6003533838       14.7618447439
  H        25.6992659228        8.5954265612       11.4060606368
  H        30.8842933475       22.6867557021        3.9438557824
  H        31.8840253712       24.5669404500        2.6433884485
  H        35.5349536834       24.1598458079        4.8821329949
  H        34.5151444210       22.2897041884        6.1878158364
  H        33.5776421444       23.5897157035        1.2116883675
  H        40.5826456179       17.0597974359        4.6679669070
  H        32.5132880313       14.1472392889        8.2539858904
  H        29.8945222735       12.5295609399        3.9266389033
  H        28.8675802088       10.6301999151        2.6683025822
  H        25.2069867867       11.1717899230        4.8602573686
  H        26.2556099355       13.0559161264        6.1261490926
  H        27.1724554464       11.6835923330        1.2405913539
  H        33.3084672236       14.2232398578        6.4604279875
  H        33.4088139869       14.4041509767        9.6051997146
  H        32.2011071127       18.5448092416        5.2308816846
  H        30.2161312910       14.1874037743        8.0730724611
  H        16.1178893196        2.9631935970       12.1292586544
  H        14.9526399731        4.8202584721       13.3219656656
  H        17.3666787129        7.6858080720       11.2107909839
  H        18.5154902354        5.8183489347       10.0110470611
  H        16.7532118250        5.7393469601       14.7715151359
  H        44.8275579241       32.1402672787       11.9773797886
  H        45.9368613412       30.3414171201       13.3067963845
  H        43.6829935465       27.3780932438       11.1518186017
  H        42.6002893129       29.1899970897        9.8091693965
  H        44.2301758687       29.4366838464       14.7689057615
  H        14.8510848753        8.5460953560       11.3632992454
  H        44.8995773214       32.2341048749        3.9315924742
  H        46.0244372210       30.4130870405        2.6520523746
  H        43.7639620441       27.4840859094        4.8458449074
  H        42.6461762489       29.3177903732        6.1249589635
  H        44.2683450445       29.4704651813        1.2181839737
  H        34.9960184147       26.6373061673        4.6497007055
  H        36.6053326256       35.1341675249        8.1805646085
  H        16.1433262716        3.0128452154        3.9044203360
  H        14.9736420469        4.8561585995        2.6886920471
  H        17.3963408338        7.7471410588        4.7546450264
  H        18.5435034592        5.8933359644        5.9822373225
  H        16.7643232019        5.7552897493        1.2192720242
  H        36.2789798441       34.4822383976        6.2733413747
  H        36.3812758934       34.2089037197        9.4992851282
  H        40.5792554248       33.2019228740        5.1539751384
  H        17.4710925123        1.9475082730        7.9740843697
  H        28.8254326840       19.1235585335       12.3814464296
  H        28.8869376859       18.8503775563        3.7130787047
  H        31.9114977623       15.7652642875        3.6011187007
  H        31.1645929133       15.5004100833       12.4585747770
  H        29.3813075799       15.7939095244       14.7444075379
  H        32.8063047266       17.8856279920        1.3119573005
  H        29.3166940433       16.3934214000        2.2992954946
  H        32.1818308954       19.2153535047       14.2311643512
  H        18.8537119896        0.8690268239       12.3352683611
  H        40.5282562512       35.2289350985        3.9520479537
  H        42.3241611226       34.4189762420        3.5903361680
  H        22.0876067686        0.6922196838       12.3514513808
  H        11.5967613386       18.7130405346       12.3825435119
  H        52.2647391759       18.4309588128        3.6773725918
  H        49.2553632494       16.4765994294        3.5842048945
  H        10.1504690682       15.7982682236       12.2927186705
  H        50.8498262724       17.6924821005        3.9541344922
  H        10.0462675671       17.3946275419       12.0519271294
  H        20.2151596161        0.0022839112       12.0419302982
  H        39.1839385853       36.1245235986        3.6863972820
 Ni        31.0703819779       17.9416371942        3.0799615163
 Ni        30.9475950032       16.8381538892        0.2517635379
 Ni        30.0963145471       18.8949223924       -0.4163679933
 Ni        30.4396794168       17.6173447870       13.2429121852
  O        10.6499816241       14.3651176943        5.4858506978
  O        12.6131625863       14.6575922548        6.5838970584
  O        49.1479526855       16.8458938657        7.9896839610
  O        50.3502249735       20.9361048382        5.6481206603
  O        48.3485259484       20.5933071160        6.6658695266
  O        11.0514396913       17.0538916840        6.5008073381
  O        50.3209365459       20.8816611696       10.4068555872
  O        48.3466736366       20.5867968439        9.3271074509
  O        49.5437247010       18.2484269373       10.0682191838
  O        12.3592942366       18.6245965101        7.9996082309
  O        48.6932662235       14.1485404237        6.7512892370
  O         8.2099140287       14.2103879088        9.3225094076
  O        10.7353844336       14.5067814038       10.6642535728
  O        12.5718360178       14.5828455447        9.3284657628
  O        22.8444587605        2.0427547392        5.4873726477
  O        21.6055329847        3.5921654825        6.5896422122
  O        42.0580212880       34.1372283656        7.9789438040
  O        37.9812659595       33.1373289210        5.5725616272
  O        39.2169779737       31.5750566585        6.6655834163
  O        20.3084186964        1.0394852970        6.5021211426
  O        38.0244089237       33.1851830173       10.4156407829
  O        39.2180638254       31.5827036838        9.3278045370
  O        40.6522153051       33.7692207139       10.0601300806
  O        18.2557594453        1.3763119785        7.9967740152
  O        44.6222117550       35.1005190251        6.7587841572
  O        24.2054158916       -0.0000059960        9.3207588042
  O        22.7528854117        2.0573921302       10.5836384958
  O        21.6243373651        3.5958809095        9.3425500571
  O        27.5265352422       18.6861036624        5.4820225779
  O        26.6994952978       16.9268512531        6.6646395191
  O        30.6372406692       19.3497611529        8.0716518537
  O        33.5475300861       16.3245030928        5.6561720257
  O        34.2746808516       18.1791587712        6.7415221519
  O        29.5706841283       17.0605936741        6.5815115477
  O        33.6197898545       16.3292421128       10.4100793296
  O        34.3044832619       18.2483335563        9.4062858874
  O        31.6516661485       18.3129549062       10.1622309104
  O        30.3196910516       15.1530468632        8.0857836516
  O        28.5505335275       21.0312449390        6.9043298162
  O        28.5113740035       20.9524382983        9.4131182568
  O        27.4944191280       18.6100995048       10.7345933905
  O        26.6924059641       16.9292164965        9.4191223495
  O        13.1476667225       18.6934446617       10.5866932020
  O        13.9193043678       16.9162660665        9.4050261334
  O        50.5961809056       19.3502079017        8.0203635583
  O        47.6837073792       16.3269983741       10.4172755399
  O        46.9519141187       18.1758880726        9.3245625394
  O        11.0698251743       17.0154455771        9.4894854013
  O        47.6755118497       16.3355402118        5.6532293389
  O        46.9264531629       18.2358296209        6.6642602959
  O        49.5685657467       18.3177309856        5.9821778121
  O        10.3186866854       15.1001313069        7.9970445687
  O        52.6707316245       21.0279049794        9.2417971144
  O        12.1467881026       20.8913381058        6.6733321090
  O        13.1056995657       18.6145498552        5.3259800614
  O        13.9575970912       16.9878629302        6.6638967048
  O        29.9912115104       14.4383321841       10.7289451257
  O        28.0881890512       14.6540908565        9.4944592662
  O        32.1397138428       16.8534026782        8.0775244879
  O        30.9641265817       20.9499509979       10.4094182074
  O        32.9448083543       20.6023959757        9.3387627314
  O        29.5668499978       17.0736737531        9.5729051467
  O        30.8512967310       20.8900712651        5.6651324356
  O        32.8706320050       20.5842085593        6.6670535568
  O        31.6759830058       18.2556103147        5.9966254881
  O        28.2377274159       18.6701930325        8.0799648063
  O        32.4933869461       14.2118304815        9.3290356465
  O        32.4065320449       14.2163529836        6.8223582212
  O        29.9132269965       14.4327972684        5.4965376546
  O        28.0327398221       14.5947909922        6.7546155040
  O        17.8891430799        1.9664922391       10.6627907768
  O        18.9561711640        3.5271177860        9.4080223852
  O        39.1685516235       34.1386197731        7.9971548581
  O        43.2801841015       33.0589223153       10.3316718532
  O        42.0343432052       31.5064409021        9.2416102188
  O        20.3176068834        1.0366995583        9.4801063206
  O        43.2760883970       33.1825513396        5.5748883463
  O        42.0052049336       31.5841248201        6.5830052779
  O        40.5789213731       33.7748859951        5.9358849372
  O        22.3673188676        1.3845579822        7.9979274315
  O        36.6728253339       35.0997308531        9.2332725000
  O        16.4456580384        0.0642886979        6.6683328949
  O        17.9364532003        2.0432937096        5.3264190243
  O        18.9190254012        3.5931701021        6.6658866844
  O        29.7820880394       18.9081659838        4.0894058150
  O        29.7354292842       18.9868273138       12.0569768888
  O        31.2294899940       16.2630473610        4.0860745856
  O        31.3402897422       16.3420888718       11.9985191297
  O        32.1850506030       17.2271677207        1.6685632253
  O        29.1482102394       16.4752541895        1.3344883465
  O        30.2914812723       16.1219137649       14.6429999589
  O        31.6497272047       18.4731994801       14.5673170543
  O        39.4569174433       35.2438456912        4.0019657066
  O        19.1416388460        0.0045948465       11.9904523345
  O        41.9695725557       35.1726487003        4.0871110365
  O        21.6912892780       -0.0693588126       11.8959605866
  O        51.3648900704       18.6142752099        4.0052878244
  O        10.7510058451       18.7471811857       11.9049135243
  O        50.0796577954       16.4127189628        4.0917143076
  O         9.5245834957       16.4831131718       11.9912084555
 Zr         9.2971028650       16.0527391020        6.1824114152
 Zr        49.8366960272       16.0065949896        9.7463820222
 Zr        22.0734573317        0.0301963352        6.1888440213
 Zr        42.4610592590       35.1538030650        9.8009617324
 Zr        29.5865420400       19.0937740951        6.2938028430
 Zr        29.5711120082       19.1647564163        9.8743123995
 Zr        11.0380607789       19.0518853831        9.8276182126
 Zr        11.0439016513       19.1548478473        6.2507800529
 Zr        31.3527668854       16.0938655023        9.8708635205
 Zr        31.3766773731       16.0072945662        6.2769199891
 Zr        18.6013108745       -0.0011338027        9.7634168437
 Zr        18.5068308208       -0.0073182099        6.2136301979
 Zr        12.3024043082       16.3235301532        7.9900493130
 Zr        48.6167510030       18.8331142087        8.0100304126
 Zr        20.3154810376        2.4739941488        7.9904674299
 Zr        40.6433313594       32.6872440803        7.9780954820
 Zr        28.3378956209       16.3360800027        8.0824588108
 Zr        32.6232109713       18.8284094164        8.0608269012
  H        28.8519674525       17.4129744228        1.1665787263
  H        28.8546226413       19.0107250427        0.4176964905
