     574
 i =       68, E =     -4778.8503870571
  C        11.8587186160       14.0534831013        5.7415735906
  C        12.4562346993       12.8905317058        5.0233139307
  C        11.7045935795       12.1716745929        4.0815554159
  C        12.2809893626       11.1094876636        3.3891923754
  C        13.6215332707       10.7396234720        3.6170173851
  C        14.3546348244       11.4431041384        4.5906031295
  C        13.7817281715       12.5080642283        5.2821195794
  C        14.2610997636        9.6489836070        2.8436162135
  C        14.2564423178        9.6569218748        1.4219161966
  C        13.7433147129       10.7590694231        0.6680162380
  C        49.1268506802       21.2332181284        5.8796099368
  C        48.5501425653       22.4011449026        5.1525068236
  C        49.3002156187       23.0685392976        4.1715917940
  C        48.7332972093       24.1077119137        3.4384277630
  C        47.4027467835       24.5093396146        3.6670359805
  C        46.6717552294       23.8603906564        4.6804717271
  C        47.2341891549       22.8154542276        5.4097842745
  C        46.7725020772       25.5870509244        2.8697851202
  C        46.7614558165       25.5574147160        1.4480260192
  C        47.2613971984       24.4423247614        0.7045315277
  C        14.8604372330        8.5706164155        0.7086489083
  C        14.8918553367        8.5970167076        3.5202662152
  C        49.1132912907       21.2035360416       10.1453442292
  C        48.5279377510       22.3648824878       10.8725310620
  C        49.2671589957       23.0256402992       11.8654224441
  C        48.6907856633       24.0601650721       12.5968936284
  C        47.3603509048       24.4568842877       12.3586736783
  C        46.6399473796       23.8119388221       11.3351679821
  C        47.2135394848       22.7760618226       10.6033799905
  C        46.7218814766       25.5318492147       13.1496890822
  C        46.7336066149       25.5282056168       14.5713911046
  C        47.2490781904       24.4290070386       15.3277711127
  C        40.6357100961       17.1602740437       15.3230372567
  C        40.6555287223       17.1865538903       12.5142394897
  C        11.8829881689       14.0865502918       10.2855193423
  C        12.4723504511       12.9107673136       10.9897517716
  C        11.7148866742       12.1775922122       11.9159260807
  C        12.2814964551       11.0951367086       12.5843253526
  C        13.6203058182       10.7213918964       12.3524496740
  C        14.3582113163       11.4368954610       11.3915443940
  C        13.7927580633       12.5180629950       10.7188705542
  C        14.2539394677        9.6246437781       13.1228408209
  C        14.2526756695        9.6446186674       14.5446799398
  C        13.7427873673       10.7535559599       15.2917625390
  C        22.5126709698        3.2445296099        5.7534545333
  C        23.2290993596        4.3495483311        5.0550079434
  C        24.2253114127        4.0687214493        4.1081817390
  C        24.8539860539        5.1077539992        3.4267865025
  C        24.5024964331        6.4499890992        3.6722268242
  C        23.5347220800        6.7223388439        4.6562712100
  C        22.9012289475        5.6850916391        5.3359245675
  C        25.1086558917        7.5562595397        2.8961891400
  C        25.0749184483        7.5514557204        1.4747851883
  C        24.3689874217        6.5538721394        0.7298930815
  C        38.2990590168       31.9283989848        5.8514916363
  C        37.5600541581       30.8398252305        5.1483940358
  C        36.5966951282       31.1466465334        4.1749986545
  C        35.9691740863       30.1285585481        3.4623350329
  C        36.2896830334       28.7776310465        3.7003911178
  C        37.2224330061       28.4782329463        4.7113351996
  C        37.8540988080       29.4952751581        5.4231798149
  C        35.6814069583       27.6889087297        2.9015477596
  C        35.7225386584       27.7023698624        1.4799830475
  C        36.4361043536       28.7022486931        0.7464527088
  C        25.6958391677        8.6219686940        0.7540035822
  C        25.7115800739        8.6285047039        3.5659452206
  C        38.3304907199       31.9610790508       10.1597095401
  C        37.6138681604       30.8876679032       10.9079915859
  C        36.6824910009       31.1963436818       11.9114498991
  C        36.0737864734       30.1785316053       12.6437551539
  C        36.3814577413       28.8253877545       12.3969048136
  C        37.2930386321       28.5266312388       11.3655224301
  C        37.9036792571       29.5409489737       10.6344260756
  C        35.7688931907       27.7263746622       13.1793416747
  C        35.7672436886       27.7215384358       14.6018305887
  C        36.4560436584       28.7123066038       15.3697844094
  C        46.1356090305       26.6208464629       15.2815283285
  C        46.0878537233       26.5801646799       12.4736334724
  C        22.4599758806        3.2561746847       10.2583386430
  C        23.1516248220        4.3656845456       10.9824911247
  C        24.1516749267        4.0811593760       11.9259467129
  C        24.7771932126        5.1123280698       12.6226898480
  C        24.4231428933        6.4579500082       12.3985108762
  C        23.4461288481        6.7356690302       11.4236592380
  C        22.8157860538        5.7047512972       10.7276189380
  C        25.0526875500        7.5570699864       13.1725220070
  C        25.0465846435        7.5512743631       14.5954520782
  C        24.3537647538        6.5546939206       15.3530377693
  C        26.6403993799       17.8255279999        5.7454051551
  C        25.3298074202       17.8800678827        5.0299234549
  C        25.0660861470       18.8795040975        4.0798768075
  C        23.8465314356       18.9063258107        3.4059661171
  C        22.8548503207       17.9362618822        3.6581140304
  C        23.1145287471       16.9610061258        4.6396566507
  C        24.3346220815       16.9300625802        5.3132765565
  C        21.5793260973       17.9237729459        2.8973920005
  C        21.5790917112       17.9005782251        1.4748132767
  C        22.7841955063       17.7730640217        0.7141411431
  C        34.4408371210       17.1916988565        5.9157083015
  C        35.7332113724       17.1427814554        5.1737044615
  C        35.9340131823       16.1888943108        4.1640842471
  C        37.1143798145       16.1838223876        3.4266175074
  C        38.1258146366       17.1303001866        3.6808915874
  C        37.9283005508       18.0631573721        4.7166539598
  C        36.7446954443       18.0749492114        5.4500727593
  C        39.3799309065       17.1462697815        2.8957252103
  C        39.3766915222       17.1729622376        1.4744406056
  C        38.1707910935       17.3055756884        0.7164873682
  C        20.3325426992       17.9204738376        0.7664110271
  C        20.3546583288       17.9287900766        3.5801549899
  C        34.4787541664       17.2477734342       10.1779708603
  C        35.7802805027       17.1803968814       10.9040696063
  C        35.9935742957       16.2042998041       11.8886380499
  C        37.1784017008       16.1928818913       12.6189781938
  C        38.1781109398       17.1561998169       12.3824800336
  C        37.9710908788       18.1074316042       11.3663903597
  C        36.7835539787       18.1246624610       10.6399539291
  C        39.4243687615       17.1781030696       13.1781759973
  C        39.3996073894       17.1897311199       14.5989261305
  C        38.1817467114       17.3116125994       15.3396831147
  C        35.1292142116       26.6443266072       15.3026225815
  C        35.1830679626       26.6546996138       12.4932853814
  C        26.5758281443       17.8275624862       10.3243607837
  C        25.2603670323       17.8711177652       11.0315749774
  C        24.9970647457       18.8722768034       11.9786666569
  C        23.7786852019       18.8961989383       12.6520434564
  C        22.7943543225       17.9189580124       12.4020660433
  C        23.0524558411       16.9425219516       11.4229780780
  C        24.2714533088       16.9165475444       10.7479626356
  C        21.5301721322       17.8987592362       13.1745318344
  C        21.5535982370       17.8859468128       14.5960337759
  C        22.7716822398       17.7660953896       15.3377691637
  C        14.0469019268       17.8286635008       10.2889218879
  C        15.3515821918       17.8850094954       11.0141969572
  C        15.6089478877       18.8872427138       11.9626522815
  C        16.8181756880       18.9069332545       12.6553299172
  C        17.8044050859       17.9272516989       12.4216686450
  C        17.5518675334       16.9494091335       11.4409479811
  C        16.3420850389       16.9250424554       10.7500141015
  C        19.0737329065       17.9085214815       13.1904848510
  C        19.0723930773       17.9032233440       14.6130350654
  C        17.8654605264       17.8050030664       15.3745758300
  C        46.8067473160       17.2205882740       10.1598465111
  C        45.5191516768       17.1657230348       10.9083730488
  C        45.3122237009       16.1941351593       11.8995411786
  C        44.1322614579       16.1853982922       12.6383344018
  C        43.1307724513       17.1483053048       12.4067390932
  C        43.3351309280       18.0995034348       11.3892222955
  C        44.5156524660       18.1123497333       10.6517849588
  C        41.8784183152       17.1682463872       13.1946704941
  C        41.8832030808       17.1691875951       14.6161759118
  C        43.0917506621       17.2593056836       15.3760395876
  C        20.3191580377       17.9118734025       15.3212618012
  C        20.2979556953       17.8898466619       12.5080700367
  C        46.7861396945       17.2308924486        5.8905277815
  C        45.4822916034       17.1264065399        5.1776078625
  C        45.2633956132       16.1331062442        4.2113432526
  C        44.0752208118       16.1115146527        3.4854975725
  C        43.0777138606       17.0799519953        3.7099037528
  C        43.2860731375       18.0413465999        4.7161615550
  C        44.4754694600       18.0697589905        5.4365774084
  C        41.8331969903       17.1108809426        2.9118477366
  C        41.8602919842       17.1379828301        1.4914602977
  C        43.0808717428       17.2421804091        0.7526399666
  C        46.1534081941       26.6372809794        0.7262859822
  C        46.1625188518       26.6561420894        3.5359303598
  C        14.0457888189       17.8313441120        5.7083184399
  C        15.3672517165       17.9042592474        5.0175264069
  C        15.6422325773       18.9183007606        4.0878586464
  C        16.8716499318       18.9537987133        3.4333702982
  C        17.8542263329       17.9742999123        3.6824015597
  C        17.5861116188       16.9892927960        4.6503737733
  C        16.3587661294       16.9533200609        5.3083625511
  C        19.1218265751       17.9471094954        2.9133582710
  C        19.0976088645       17.9218979393        1.4916791138
  C        17.8777331792       17.8133413186        0.7508706659
  C        28.8109458612       14.0926641714       10.3919997206
  C        28.1939804273       12.9204484277       11.0801626545
  C        28.9165371544       12.1739418272       12.0227889370
  C        28.3141272321       11.1009175192       12.6751399928
  C        26.9753464627       10.7493860848       12.4076926708
  C        26.2747993207       11.4756893198       11.4282118865
  C        26.8746498438       12.5496233959       10.7752046171
  C        26.3047468594        9.6700061449       13.1684788370
  C        26.2936722989        9.6964032924       14.5894441436
  C        26.7978661749       10.8093744379       15.3345500282
  C        32.1835111811       21.2425952608       10.1372422574
  C        32.7805460235       22.4057853958       10.8606596310
  C        32.0308931829       23.0824487592       11.8353600971
  C        32.6003832805       24.1206271367       12.5666022995
  C        33.9356371356       24.5105821115       12.3453483653
  C        34.6681922322       23.8514741325       11.3399091821
  C        34.1008834206       22.8080245508       10.6100222915
  C        34.5617499046       25.5858933810       13.1491929601
  C        34.5421557627       25.5600812138       14.5711946295
  C        34.0249788503       24.4476183363       15.3076644966
  C        25.6854536479        8.6184171941       15.3091364699
  C        25.6675733998        8.6192818441       12.4956255891
  C        32.0851760752       21.2023718631        5.8725531426
  C        32.6532443559       22.3687314290        5.1339572707
  C        31.9162359253       23.0251668731        4.1362042539
  C        32.4899474449       24.0634184935        3.4042872277
  C        33.8143319990       24.4761120474        3.6520965865
  C        34.5318100644       23.8350371726        4.6803710525
  C        33.9635997094       22.7925476988        5.4068460632
  C        34.4564363729       25.5596424687        2.8710551853
  C        34.4863105431       25.5475122083        1.4490508854
  C        33.9965842441       24.4421360218        0.6843321724
  C        40.6237327970       17.1478625282        0.7670685893
  C        40.6023964821       17.1325120731        3.5763267869
  C        28.7509666586       14.0710715804        5.8169898699
  C        28.1429216135       12.9231308923        5.0791780515
  C        28.8738783383       12.2362546723        4.0979818152
  C        28.2934062803       11.1784596647        3.4017763583
  C        26.9654384191       10.7822665444        3.6599096063
  C        26.2520516750       11.4573571457        4.6680487653
  C        26.8312268303       12.5145732289        5.3669944078
  C        26.3211388222        9.6925034851        2.8879752731
  C        26.3032352532        9.7081522458        1.4661140355
  C        26.8000963978       10.8164970858        0.7105785887
  C        18.1355297235        3.1809272639       10.3172235731
  C        17.4063176729        4.2781996215       11.0159214593
  C        16.3904648444        3.9998852974       11.9433020302
  C        15.7427234449        5.0398964632       12.6067429591
  C        16.0947137822        6.3836006251       12.3670910326
  C        17.0842343340        6.6530766841       11.4034585975
  C        17.7333394251        5.6157054635       10.7384597892
  C        15.4704064625        7.4913225083       13.1301304354
  C        15.4856625342        7.4906171124       14.5518456718
  C        16.1872123431        6.4969990331       15.3050218992
  C        42.9458208585       31.8595393269       10.0728895487
  C        43.6461615200       30.7718629517       10.8168725286
  C        44.5916939533       31.0931897757       11.8029410372
  C        45.1974114425       30.0876438909       12.5505978777
  C        44.8710306099       28.7345718962       12.3357136173
  C        43.9452087790       28.4202275248       11.3224947973
  C        43.3363851102       29.4253694942       10.5744564443
  C        45.4886428248       27.6552883704       13.1389092248
  C        45.4928302760       27.6809305107       14.5606058890
  C        44.8057739381       28.6889894428       15.3072430883
  C        14.8566930246        8.5631060080       15.2642158295
  C        14.8751060534        8.5630832250       12.4515463962
  C        42.9464494153       31.9616070819        5.8089760803
  C        43.6917057848       30.8854862870        5.0955092733
  C        44.6563424417       31.1914114192        4.1232524863
  C        45.2779101119       30.1718291956        3.4055572540
  C        44.9541072193       28.8215066166        3.6431405918
  C        44.0205894609       28.5238245806        4.6538825795
  C        43.3922755232       29.5405826116        5.3660310694
  C        45.5631877918       27.7241268921        2.8578882218
  C        45.5334378768       27.7174281005        1.4365898276
  C        44.8270757732       28.7076313186        0.6836372731
  C        35.1035245103       26.6364305481        0.7479628618
  C        35.0658972346       26.6171494949        3.5582831722
  C        18.1486120859        3.2468998663        5.7065838793
  C        17.4300790443        4.3437511665        4.9972463437
  C        16.4147203770        4.0525172468        4.0738305589
  C        15.7664196515        5.0831702738        3.3984600316
  C        16.1212091996        6.4283861765        3.6210903545
  C        17.1127628222        6.7117301887        4.5781745178
  C        17.7604382267        5.6827997457        5.2579168919
  C        15.4907090889        7.5241067968        2.8486682116
  C        15.4966257429        7.5074942282        1.4275341131
  C        16.1933913515        6.5057916083        0.6808375745
  H        10.6724826670       12.4658317864        3.9044681210
  H        11.6947342386       10.5510400039        2.6625993370
  H        15.3916404251       11.1684613393        4.7724129192
  H        14.3511520306       13.0712452301        6.0176166424
  H        13.3762546301       11.6311706060        1.2013306007
  H        50.3229403957       22.7485353820        3.9868816213
  H        49.3198063472       24.6230518181        2.6809185286
  H        45.6422543332       24.1611435940        4.8636263135
  H        46.6631411566       22.2901565310        6.1718099214
  H        47.6299306428       23.5759453604        1.2462165569
  H        14.8721876587        8.5882342030        4.6085728122
  H        50.2872239910       22.7028442031       12.0603222812
  H        49.2691604981       24.5756537856       13.3603876266
  H        45.6105239709       24.1091260969       11.1461254323
  H        46.6527124594       22.2538667065        9.8318449440
  H        47.6078334597       23.5518776536       14.7968743701
  H        40.6623029361       17.1509697921       11.4265505060
  H        48.6870075934       14.0948867073        7.7999821853
  H        10.6814166541       12.4666486973       12.0933628765
  H        11.6897273872       10.5247225595       13.2970251029
  H        15.3936292160       11.1589984439       11.2055466768
  H        14.3650709365       13.0874272064        9.9903157791
  H        13.3759532294       11.6221674429       14.7531277113
  H        47.9302024930       14.2180389331        9.7109679521
  H        47.7800619648       14.3733726387        6.4950854225
  H        49.0842075969       18.5527363107       10.8675370290
  H        10.4161041850       14.1342765821        7.9987404355
  H        24.4844277178        3.0298606991        3.9163412981
  H        25.6262542809        4.8895406725        2.6923326908
  H        23.2559921819        7.7556406874        4.8522622752
  H        22.1317238042        5.8862505444        6.0772476958
  H        23.8087496173        5.7971529421        1.2713107863
  H        36.3647899577       32.1907451598        3.9785289547
  H        35.2230627254       30.3710003684        2.7087570409
  H        37.4777973113       27.4380923916        4.9031536540
  H        38.5999753177       29.2709096207        6.1820826181
  H        36.9985479781       29.4516931958        1.2956255920
  H        25.7521230457        8.6089076544        4.6535324843
  H        36.4550965712       32.2404485042       12.1144374859
  H        35.3451842541       30.4247900523       13.4130143573
  H        37.5441605861       27.4865999744       11.1679061824
  H        38.6285070017       29.3139136163        9.8564129350
  H        37.0346758357       29.4692552288       14.8480677049
  H        46.1092518206       26.5875622476       11.3855970505
  H        44.6682805009       35.1161900360        7.8139209386
  H        24.4297662418        3.0432782985       12.0947188534
  H        25.5565072373        4.8844251367       13.3467694097
  H        23.1610666525        7.7698254448       11.2412716938
  H        22.0457272397        5.9166228652        9.9894395806
  H        23.7811761187        5.7992486823       14.8227819578
  H        44.9538635962       34.3905253174        9.6953069149
  H        44.9017914614       34.2067971103        6.4906431312
  H        40.6662350940       33.2091554476       10.8532056383
  H        23.1503642709        1.9578983110        8.0055495415
  H        25.8268046580       19.6324576031        3.8863819382
  H        23.6468143257       19.6877421204        2.6758023346
  H        22.3609656710       16.2031102049        4.8440408687
  H        24.5451735022       16.1635380436        6.0554684826
  H        23.7245135097       17.6501657117        1.2435385886
  H        35.1486797226       15.4639072530        3.9647352833
  H        37.2692451003       15.4373958524        2.6506531809
  H        38.7019745222       18.8015490294        4.9167940352
  H        36.5741436250       18.8104515991        6.2327993016
  H        37.2318966413       17.4314259655        1.2480657450
  H        20.3616105855       17.9699967292        4.6679964625
  H        35.2117462625       15.4721653305       12.0767510026
  H        37.3440856036       15.4332509083       13.3798036014
  H        38.7374804221       18.8569893803       11.1801807054
  H        36.6003307151       18.8763855596        9.8758252390
  H        37.2512969471       17.4409288516       14.7944018176
  H        35.1634715577       26.6794732419       11.4053768885
  H        28.5035697483       21.0819936519        7.8827251384
  H        25.7601864066       19.6237147765       12.1689050620
  H        23.5741644099       19.6771250893       13.3813212375
  H        22.3011114724       16.1810044140       11.2240667600
  H        24.4864913407       16.1511175903       10.0061343059
  H        23.7022707882       17.6385995201       14.7928820511
  H        28.9935413533       21.7273989674        9.7495384268
  H        29.1719567382       21.7274835016        6.5538271934
  H        32.1199999353       18.5837338381       10.9074420304
  H        27.4008505166       19.0660764978        8.0691850326
  H        14.8508806234       19.6464402702       12.1418440831
  H        17.0138037556       19.6904218326       13.3843150817
  H        18.3027700484       16.1851114396       11.2513149754
  H        16.1356835920       16.1566336671       10.0087845310
  H        16.9227249660       17.6906300707       14.8474270243
  H        46.0928366109       15.4597328202       12.0836621494
  H        43.9708236028       15.4244089883       13.3986356459
  H        42.5692432435       18.8505355825       11.2071955362
  H        44.6912024776       18.8607695317        9.8826661249
  H        44.0340618898       17.3732155870       14.8477889071
  H        20.2917494088       17.9222627482       11.4200090024
  H        46.0401552166       15.3936800363        4.0302097339
  H        43.9074179345       15.3420025888        2.7351249951
  H        42.5197345483       18.7925137593        4.8955901766
  H        44.6594711401       18.8316155038        6.1900157866
  H        44.0148826634       17.3417653125        1.2980109431
  H        46.1993748746       26.6826824047        4.6233751465
  H        52.7411639653       21.0626338542        8.1947196001
  H        14.8826373411       19.6726328130        3.8946788832
  H        17.0834293515       19.7433288281        2.7155117937
  H        18.3356581053       16.2264441513        4.8507891894
  H        16.1369323341       16.1797428731        6.0395009104
  H        16.9442177348       17.7054065252        1.2949117311
  H        52.3224813181       21.6732484167        6.2942345178
  H        52.0131759756       21.7019748612        9.4957062010
  H        49.0676096265       18.6078043446        5.2041559150
  H        13.2476278658       19.0162134303        7.9772562039
  H        29.9496038904       12.4473237057       12.2267089903
  H        28.8759077448       10.5206492841       13.4040111971
  H        25.2405961235       11.2139267282       11.2140572485
  H        26.3314509533       13.1315315298       10.0346526679
  H        27.1576334611       11.6786924908       14.7925876264
  H        31.0055308183       22.7681170793       12.0150268465
  H        32.0128407125       24.6444717331       13.3174222956
  H        35.7018322206       24.1419566322       11.1631706342
  H        34.6725039970       22.2743295403        9.8540941464
  H        33.6729397766       23.5781199785       14.7600534898
  H        25.6969088810        8.5997006134       11.4076009343
  H        30.8956651580       22.7031925720        3.9407945849
  H        31.9114328994       24.5718780758        2.6360009541
  H        35.5565672960       24.1420531861        4.8790193898
  H        34.5249465981       22.2755928702        6.1814925473
  H        33.6232606028       23.5677944395        1.2100073628
  H        40.5944660574       17.0837859937        4.6635258611
  H        32.5081923300       14.1487612125        8.2485002053
  H        29.8974541503       12.5457300635        3.8991654698
  H        28.8686530350       10.6410326546        2.6509534283
  H        25.2246578275       11.1646376154        4.8747462536
  H        26.2769624474       13.0508170222        6.1335918256
  H        27.1603933281       11.6915065557        1.2436206992
  H        33.3102477554       14.2322584979        6.4688517198
  H        33.4103537371       14.4043158180        9.5976865421
  H        32.1301709133       18.4655359074        5.1486465416
  H        30.2235738060       14.1915289858        8.0673917082
  H        16.1183043107        2.9633926565       12.1296236284
  H        14.9531421475        4.8205439964       13.3222669810
  H        17.3667181639        7.6859405670       11.2103632416
  H        18.5154407084        5.8183285236       10.0106736648
  H        16.7537692490        5.7396613877       14.7715177693
  H        44.8279834026       32.1402704306       11.9771249292
  H        45.9373124140       30.3414006074       13.3065074103
  H        43.6825719479       27.3781527155       11.1523209953
  H        42.5998390997       29.1900204259        9.8097259543
  H        44.2303944368       29.4367435334       14.7689473933
  H        14.8513475930        8.5463036098       11.3633266588
  H        44.8999046964       32.2340933054        3.9318316167
  H        46.0248541087       30.4130735526        2.6523621549
  H        43.7636136631       27.4840931348        4.8454207125
  H        42.6457343449       29.3177615505        6.1244284667
  H        44.2685858628       29.4705281307        1.2182270442
  H        35.0163972359       26.6306286450        4.6454788622
  H        36.6051836617       35.1339823964        8.1806884325
  H        16.1435161198        3.0129551562        3.9042097511
  H        14.9739733115        4.8563648906        2.6884973273
  H        17.3964054248        7.7471786571        4.7549582806
  H        18.5434702990        5.8932197657        5.9825211903
  H        16.7648015382        5.7555431772        1.2192904981
  H        36.2786529138       34.4823163200        6.2732271689
  H        36.3808717122       34.2090572631        9.4996537388
  H        40.5793497985       33.2018565295        5.1539416487
  H        17.4709361279        1.9471127831        7.9741345426
  H        29.1215627783       19.4123348187       12.5065796931
  H        28.9609124029       18.4703844958        3.7394551733
  H        31.8851214961       15.8178861938        3.4988936957
  H        31.3737245187       15.6030670607       12.5301324190
  H        28.0762736584       17.9097462189       14.6142375150
  H        29.7779144057       14.9888146569       14.4772009511
  H        30.5371070172       20.0169210588        2.0095548964
  H        32.7309873521       17.6548622562        1.1715271447
  H        28.7392686281       16.5679571458        0.4738075936
  H        32.1601318115       18.6041039539       14.7707236315
  H        18.8532384795        0.8688333099       12.3352277213
  H        40.5278193569       35.2288142458        3.9520883537
  H        42.3239820792       34.4188040515        3.5905424151
  H        22.0876099415        0.6920724238       12.3514232393
  H        11.5968692532       18.7129119350       12.3825975347
  H        52.2650503329       18.4310513630        3.6773167765
  H        49.2551250043       16.4771622398        3.5846743807
  H        10.1495012579       15.7981632636       12.2930353685
  H        50.8501381248       17.6923933928        3.9542977902
  H        10.0457906645       17.3943891427       12.0519849884
  H        20.2145961358        0.0021632374       12.0419811224
  H        39.1834584523       36.1240841098        3.6863524958
 Ni        30.9960618082       17.8272586938        2.7518814676
 Ni        31.1588621627       16.3240212136       -0.0012338639
 Ni        29.8438059941       18.8418615169       -0.0023993348
 Ni        30.2673869255       17.5217120982       13.1625779331
  O        10.6499303472       14.3650738915        5.4858324205
  O        12.6131752013       14.6575243134        6.5838870025
  O        49.1481428435       16.8458904553        7.9897239310
  O        50.3503167489       20.9358266766        5.6480770253
  O        48.3486036779       20.5933787914        6.6659063221
  O        11.0518227852       17.0538252437        6.5006748474
  O        50.3210969963       20.8816707568       10.4068460618
  O        48.3467943130       20.5868338901        9.3271748974
  O        49.5437603766       18.2484373620       10.0682806538
  O        12.3591055882       18.6245909696        7.9997167340
  O        48.6932805722       14.1485333361        6.7512968344
  O         8.2098726825       14.2103784160        9.3225484452
  O        10.7353869521       14.5067667201       10.6643292058
  O        12.5718223043       14.5828436523        9.3284918747
  O        22.8446337186        2.0432179979        5.4871621577
  O        21.6057048572        3.5923827167        6.5894850198
  O        42.0580573979       34.1372738148        7.9789451285
  O        37.9813361456       33.1369344257        5.5725294727
  O        39.2174743825       31.5753347725        6.6660780135
  O        20.3083768499        1.0394461564        6.5020483013
  O        38.0245190875       33.1851249152       10.4156439823
  O        39.2186781437       31.5832555082        9.3271206720
  O        40.6521927583       33.7692279016       10.0601595132
  O        18.2556074342        1.3759186298        7.9967951239
  O        44.6222092580       35.1005336952        6.7587494075
  O        24.2053459245        0.0000427210        9.3208090353
  O        22.7529722051        2.0581536034       10.5840133104
  O        21.6243624572        3.5960493872        9.3425043442
  O        27.5429167357       18.6816117225        5.4120149604
  O        26.7652101515       16.9363468026        6.6516612299
  O        30.6634800334       19.4034989667        8.0112270194
  O        33.5853743541       16.2736221246        5.6635565720
  O        34.2763033053       18.1655688022        6.7306683384
  O        29.5814853463       17.0539976049        6.5759747554
  O        33.6224696240       16.3292926209       10.4075225181
  O        34.3054979910       18.2483589556        9.4029006087
  O        31.6585326480       18.3177140161       10.0949939471
  O        30.3241379629       15.1574260308        8.0816478945
  O        28.5503286007       21.0300539253        6.8309194532
  O        28.5134666203       20.9571234557        9.4010447768
  O        27.4619810374       18.6784801853       10.6589236015
  O        26.6955237294       16.9292151577        9.4113818349
  O        13.1491729938       18.6928550856       10.5875665741
  O        13.9195246720       16.9161993601        9.4050383195
  O        50.5964203998       19.3502975555        8.0205342444
  O        47.6834010386       16.3270890014       10.4173008532
  O        46.9526193273       18.1761189346        9.3239246717
  O        11.0698612922       17.0154776895        9.4896779109
  O        47.6763645957       16.3354518428        5.6531504909
  O        46.9284917678       18.2357457666        6.6653091487
  O        49.5688637240       18.3177310536        5.9822830951
  O        10.3186688067       15.1001201174        7.9970951098
  O        52.6707827145       21.0278756259        9.2418419494
  O        12.1468711257       20.8911690000        6.6732079294
  O        13.1085047062       18.6135867713        5.3254848480
  O        13.9574229844       16.9871192013        6.6653319391
  O        29.9937079243       14.4429271933       10.7312628470
  O        28.0897335807       14.6537728417        9.4945238834
  O        32.1361586422       16.8511116632        8.0628532052
  O        30.9690977393       20.9569976659       10.3997990128
  O        32.9497903453       20.5997921529        9.3334171464
  O        29.5684397304       17.0764642803        9.5764376436
  O        30.8595157869       20.8859211013        5.6465471489
  O        32.8727299772       20.5871945675        6.6623924378
  O        31.6874195448       18.2501065987        5.9877331295
  O        28.2897603718       18.6753217468        8.0574868855
  O        32.4931184982       14.2126017539        9.3271480886
  O        32.4043567416       14.2175339452        6.8211278249
  O        29.9243387687       14.4432524904        5.4888713046
  O        28.0416456706       14.5900847284        6.7509728743
  O        17.8892195886        1.9665747630       10.6628090018
  O        18.9562249726        3.5271106238        9.4079552123
  O        39.1685801416       34.1386599816        7.9971523423
  O        43.2802031049       33.0589568449       10.3316862014
  O        42.0344439427       31.5064554792        9.2416199317
  O        20.3176127923        1.0367016802        9.4801787583
  O        43.2760646737       33.1825897837        5.5748982399
  O        42.0052482838       31.5841050183        6.5829830178
  O        40.5789253430       33.7748484317        5.9358370603
  O        22.3672980975        1.3845980805        7.9979210417
  O        36.6727952704       35.0996915167        9.2333364650
  O        16.4455959386        0.0641977725        6.6682703905
  O        17.9364656350        2.0432886748        5.3263888777
  O        18.9190498833        3.5931005036        6.6659190784
  O        29.8561169420       18.7600781914        4.0014486152
  O        29.8615104146       19.0415973340       11.9859072591
  O        31.3051220928       16.4139778811        4.0062718605
  O        31.3868521976       16.4167303251       11.9879226001
  O        32.1803934256       16.9242478580        1.5092984251
  O        29.4844229844       17.0801426397        0.8334304571
  O        30.4542251176       15.6805568519       14.3949554382
  O        31.3826929135       18.0241940374       14.8311507442
  O        30.9173413489       19.2703058184        1.5086017938
  O        28.8458377937       18.4642274716       14.4020649316
  O        39.4566097819       35.2434862757        4.0019868670
  O        19.1412374074        0.0043734527       11.9905487072
  O        41.9695565110       35.1726904548        4.0871252710
  O        21.6911810023       -0.0693611419       11.8958046076
  O        51.3652474530       18.6142499994        4.0054397078
  O        10.7511496260       18.7471573769       11.9049158295
  O        50.0796494397       16.4128120804        4.0917702382
  O         9.5239017750       16.4831379023       11.9912316386
 Zr         9.2970597643       16.0526784596        6.1825040201
 Zr        49.8363284875       16.0066194845        9.7463080998
 Zr        22.0733095814        0.0299161197        6.1889044623
 Zr        42.4609227365       35.1535461106        9.8008643825
 Zr        29.6216929569       19.0734978859        6.2432868695
 Zr        29.5843869913       19.1924492029        9.8382163422
 Zr        11.0382072374       19.0518726508        9.8277558953
 Zr        11.0440355905       19.1547936405        6.2510646694
 Zr        31.3595250946       16.1013904020        9.8581478630
 Zr        31.3869444685       16.0175272638        6.2548524826
 Zr        18.6011266755       -0.0015406881        9.7634000020
 Zr        18.5065631886       -0.0078260494        6.2136715842
 Zr        12.3021503127       16.3235472011        7.9903142301
 Zr        48.6169305209       18.8332904130        8.0102478650
 Zr        20.3153065969        2.4735148016        7.9904423366
 Zr        40.6432678480       32.6869166532        7.9781058681
 Zr        28.3509770820       16.3380125149        8.0871447308
 Zr        32.6330907481       18.8344707134        8.0411031258
  H        30.0017398322       20.2056319523       -0.4705589735
  H        31.0036585759       15.0528789831        0.6473165594
