     573
 i =      170, E =     -4762.8405039177
  C        11.8588017918       14.0535201116        5.7415293927
  C        12.4563363985       12.8906280924        5.0231970393
  C        11.7045537865       12.1714824989        4.0817724876
  C        12.2809510995       11.1092762975        3.3894449625
  C        13.6216241709       10.7397144230        3.6169801676
  C        14.3549246427       11.4435605421        4.5901399149
  C        13.7820123909       12.5085418314        5.2816236367
  C        14.2611306848        9.6490093702        2.8436125249
  C        14.2563621999        9.6568664048        1.4219152838
  C        13.7431458727       10.7589730120        0.6680193727
  C        49.1269562025       21.2331787398        5.8796608975
  C        48.5502123112       22.4011905845        5.1525726097
  C        49.3002300451       23.0685064685        4.1715786051
  C        48.7333013088       24.1076752892        3.4383983934
  C        47.4027856566       24.5093471216        3.6670753584
  C        46.6718520231       23.8604884043        4.6806062895
  C        47.2343034709       22.8155593628        5.4099257535
  C        46.7724908542       25.5870346212        2.8698197841
  C        46.7613442960       25.5573729693        1.4480587792
  C        47.2612512256       24.4422637858        0.7045688825
  C        14.8603158415        8.5705350038        0.7086585471
  C        14.8919656365        8.5971054494        3.5202713704
  C        49.1133256177       21.2034321927       10.1453597524
  C        48.5279068496       22.3648005454       10.8726045445
  C        49.2671007152       23.0255049242       11.8655363163
  C        48.6907514098       24.0600640263       12.5969967118
  C        47.3603571769       24.4568534449       12.3587134862
  C        46.6399801227       23.8119620974       11.3351588864
  C        47.2135575751       22.7760546752       10.6033903939
  C        46.7218609739       25.5318205270       13.1497191660
  C        46.7334931747       25.5281520199       14.5714252800
  C        47.2489395753       24.4289425226       15.3278082384
  C        40.6355229718       17.1360613312       15.3216003643
  C        40.6569892868       17.1640841920       12.5126215339
  C        11.8831032367       14.0865411712       10.2855209653
  C        12.4724712723       12.9108099669       10.9898082352
  C        11.7148578776       12.1773762754       11.9156579637
  C        12.2814754154       11.0949289473       12.5840615421
  C        13.6204071151       10.7214520415       12.3524713963
  C        14.3585101024       11.4372916737       11.3919793573
  C        13.7930560620       12.5184571983       10.7192971727
  C        14.2539803636        9.6246576261       13.1228586687
  C        14.2525851710        9.6445485463       14.5446971391
  C        13.7426284262       10.7534608003       15.2917658738
  C        22.5126127945        3.2445983500        5.7531667075
  C        23.2286562611        4.3493023645        5.0541969192
  C        24.2252111020        4.0681073181        4.1077970405
  C        24.8537681346        5.1068055701        3.4258612229
  C        24.5017715959        6.4491864286        3.6700387337
  C        23.5336088056        6.7218921005        4.6536769576
  C        22.9003052057        5.6849937134        5.3340021518
  C        25.1087494454        7.5549517010        2.8940120084
  C        25.0795008616        7.5482026305        1.4725089162
  C        24.3753817364        6.5499383443        0.7268332066
  C        38.2983415439       31.9280990921        5.8522031765
  C        37.5569820970       30.8392954349        5.1508434010
  C        36.5905388200       31.1465249062        4.1806402351
  C        35.9602503999       30.1288252582        3.4697715395
  C        36.2811676346       28.7775835089        3.7057600590
  C        37.2170260146       28.4776728644        4.7136842497
  C        37.8511999702       29.4944436441        5.4240748846
  C        35.6706363039       27.6902352872        2.9061455993
  C        35.7091528013       27.7071944209        1.4844048342
  C        36.4231949783       28.7076963194        0.7520613964
  C        25.7027952117        8.6176661974        0.7521285269
  C        25.7084369183        8.6287950030        3.5642143991
  C        38.3307163268       31.9615735618       10.1601290452
  C        37.6133463997       30.8897826692       10.9103974293
  C        36.6812629878       31.2020923825       11.9120864828
  C        36.0697271865       30.1869863434       12.6457338699
  C        36.3752665163       28.8329601229       12.4017234269
  C        37.2886732007       28.5304690115       11.3730702461
  C        37.9021308063       29.5422052176       10.6405993858
  C        35.7574878345       27.7362968412       13.1834450749
  C        35.7533101149       27.7309233151       14.6059566378
  C        36.4430753141       28.7198281809       15.3754339031
  C        46.1354689248       26.6207860322       15.2815573909
  C        46.0879380505       26.5801970917       12.4736617131
  C        22.4610809072        3.2560794608       10.2579268217
  C        23.1552382294        4.3645799378       10.9809400895
  C        24.1568374231        4.0782561973       11.9222891547
  C        24.7850446644        5.1081584543       12.6184042183
  C        24.4320932896        6.4543447613       12.3959346666
  C        23.4535954097        6.7338680676       11.4230801831
  C        22.8206628220        5.7042211009       10.7274639011
  C        25.0635700521        7.5522022300       13.1701435996
  C        25.0570124787        7.5460457695       14.5930445762
  C        24.3628266048        6.5499076216       15.3499575831
  C        26.6218463592       17.8624789907        5.7857673565
  C        25.3159589509       17.8998877458        5.0572420574
  C        25.0538390508       18.8953070232        4.1025802409
  C        23.8414786935       18.9119040254        3.4153374104
  C        22.8533413810       17.9369032565        3.6616436044
  C        23.1121220959       16.9630872197        4.6446551608
  C        24.3270694523       16.9404205013        5.3285053074
  C        21.5795091751       17.9219764019        2.8979609490
  C        21.5798116670       17.9021712258        1.4753541313
  C        22.7854979141       17.7781508198        0.7150181504
  C        34.4396522749       17.1946605522        5.9199879836
  C        35.7296763909       17.1506439946        5.1712301279
  C        35.9339514169       16.1861968044        4.1721104039
  C        37.1142167757       16.1764913727        3.4343354749
  C        38.1227343833       17.1290334295        3.6775977705
  C        37.9209056784       18.0743838975        4.7010005788
  C        36.7373189608       18.0903366240        5.4350060582
  C        39.3779738100       17.1383033458        2.8936469167
  C        39.3754077664       17.1538717569        1.4722393806
  C        38.1694105649       17.2761983716        0.7128078608
  C        20.3332824572       17.9230170307        0.7666345759
  C        20.3544664612       17.9254209300        3.5801294358
  C        34.4768837525       17.2425409192       10.1849076005
  C        35.7788388946       17.1667068027       10.9071907544
  C        35.9949941418       16.1818411234       11.8824569516
  C        37.1815513138       16.1640933698       12.6096095160
  C        38.1798538326       17.1302594660       12.3796664400
  C        37.9710860533       18.0891701125       11.3712442794
  C        36.7822759362       18.1122450418       10.6475309839
  C        39.4256788705       17.1504336987       13.1758669430
  C        39.3997252299       17.1603263863       14.5966007382
  C        38.1806572172       17.2771710843       15.3360695613
  C        35.1119054424       26.6547586203       15.3052763107
  C        35.1693665246       26.6669328569       12.4957661577
  C        26.5767281819       17.8284946697       10.3278002659
  C        25.2610276881       17.8768829587       11.0321991630
  C        24.9976757738       18.8794867258       11.9777315083
  C        23.7794566871       18.9045326418       12.6511341953
  C        22.7949675662       17.9273134374       12.4022556857
  C        23.0524077746       16.9503638271       11.4234791840
  C        24.2713531256       16.9228793189       10.7487842890
  C        21.5311480937       17.9069863461       13.1751367418
  C        21.5549573445       17.8933165908       14.5967121411
  C        22.7731918580       17.7740561711       15.3384983091
  C        14.0474601453       17.8290941666       10.2888024036
  C        15.3522516619       17.8867621321       11.0135157773
  C        15.6078816967       18.8880533698       11.9635385424
  C        16.8170777148       18.9090911632       12.6561641962
  C        17.8054782276       17.9318402048       12.4211248368
  C        17.5546979360       16.9551820622       11.4386632251
  C        16.3448892766       16.9293710796       10.7477417118
  C        19.0746898999       17.9142716143       13.1902871185
  C        19.0733461191       17.9080362326       14.6128852736
  C        17.8663518574       17.8078759763       15.3740318889
  C        46.8072436121       17.2197195433       10.1593983585
  C        45.5197609751       17.1616902707       10.9078554937
  C        45.3156131375       16.1875207964       11.8970340190
  C        44.1358636843       16.1739352266       12.6358642101
  C        43.1319511640       17.1346405443       12.4062477172
  C        43.3336877913       18.0888500304       11.3910303004
  C        44.5140905563       18.1064314194       10.6534009621
  C        41.8793935791       17.1486182341       13.1938112956
  C        41.8833608846       17.1483234826       14.6153430672
  C        43.0912821289       17.2421417590       15.3757357036
  C        20.3200862973       17.9170840377       15.3214669675
  C        20.2991372726       17.8971365977       12.5082963462
  C        46.7857475667       17.2309149254        5.8903958013
  C        45.4815670945       17.1257559826        5.1773440389
  C        45.2619811182       16.1301596781        4.2135691414
  C        44.0735568989       16.1068872931        3.4880769747
  C        43.0760553744       17.0760143993        3.7099809513
  C        43.2852088130       18.0400324324        4.7136205622
  C        44.4748453008       18.0699341786        5.4338610141
  C        41.8314263396       17.1041483415        2.9116045639
  C        41.8590195440       17.1242282122        1.4909854339
  C        43.0797804949       17.2279633623        0.7523582434
  C        46.1532774786       26.6372329940        0.7263196672
  C        46.1626110727       26.6561887871        3.5359562342
  C        14.0460793621       17.8310657667        5.7081581331
  C        15.3672081217       17.9032804119        5.0172634008
  C        15.6425680585       18.9172190997        4.0875531530
  C        16.8719156260       18.9521064396        3.4330123855
  C        17.8541461339       17.9721401025        3.6818336591
  C        17.5855832218       16.9872169480        4.6498055809
  C        16.3583361540       16.9518178237        5.3079365833
  C        19.1218214103       17.9451226271        2.9130952241
  C        19.0980859102       17.9224996022        1.4914654645
  C        17.8784332273       17.8144810930        0.7503017497
  C        28.8130700855       14.0940672455       10.3937628332
  C        28.2006453745       12.9188734760       11.0797469463
  C        28.9257421768       12.1711608172       12.0194461830
  C        28.3257512052       11.0963769780       12.6710818206
  C        26.9867667162       10.7441708180       12.4059157441
  C        26.2837639022       11.4712072973       11.4286407499
  C        26.8811609737       12.5467589013       10.7763026714
  C        26.3172933537        9.6641240772       13.1669221151
  C        26.3062363991        9.6901037038       14.5879742351
  C        26.8116455882       10.8023389544       15.3333120018
  C        32.1778655323       21.2443164162       10.1495019836
  C        32.7676029800       22.4131864974       10.8681755031
  C        32.0133137843       23.0975147469       11.8337979057
  C        32.5801242549       24.1396756923       12.5614109893
  C        33.9175494840       24.5251581554       12.3460393564
  C        34.6544473790       23.8597375808       11.3481046095
  C        34.0896137556       22.8130119897       10.6215443030
  C        34.5433775547       25.6002022531       13.1502650987
  C        34.5218569727       25.5733600239       14.5720865912
  C        34.0009755492       24.4612831524       15.3064143366
  C        25.6958826518        8.6128740348       15.3072204894
  C        25.6791635120        8.6142220791       12.4936833302
  C        32.0769683305       21.1997105129        5.8768318408
  C        32.6457705376       22.3616724706        5.1296528229
  C        31.9057367353       23.0232261104        4.1373260759
  C        32.4777878142       24.0637054570        3.4066633359
  C        33.8035376260       24.4748625363        3.6504339687
  C        34.5247894039       23.8275348643        4.6721002800
  C        33.9583665639       22.7827500885        5.3968590206
  C        34.4433658593       25.5620127798        2.8720784468
  C        34.4688916097       25.5548348826        1.4500132225
  C        33.9743485745       24.4533293960        0.6829758854
  C        40.6228886217       17.1282386646        0.7657305781
  C        40.6000252015       17.1298296275        3.5751910538
  C        28.7500803736       14.0685624762        5.8186724558
  C        28.1388586236       12.9229768221        5.0792659326
  C        28.8737521201       12.2291121200        4.1058875131
  C        28.2936724930       11.1718981187        3.4085722341
  C        26.9623120425       10.7824935611        3.6587808623
  C        26.2442408043       11.4648189512        4.6586271374
  C        26.8229057488       12.5222331448        5.3580118689
  C        26.3202453648        9.6915091606        2.8865704033
  C        26.3084513995        9.7045263700        1.4646370709
  C        26.8101560816       10.8108011206        0.7093474753
  C        18.1354708685        3.1810434562       10.3171793047
  C        17.4062428907        4.2782528946       11.0157980571
  C        16.3904608985        3.9999357529       11.9432737387
  C        15.7427723690        5.0399416168       12.6067465526
  C        16.0947781334        6.3836574779       12.3671158703
  C        17.0842385907        6.6531376018       11.4034179059
  C        17.7333037918        5.6157720058       10.7383809363
  C        15.4704310521        7.4913429368       13.1301530599
  C        15.4856003121        7.4905682673       14.5518653162
  C        16.1871707671        6.4969661584       15.3050397397
  C        42.9458579570       31.8595656344       10.0728577174
  C        43.6462254887       30.7718691030       10.8167973382
  C        44.5915187550       31.0932174276       11.8030888674
  C        45.1972322377       30.0876837823       12.5507674033
  C        44.8710747195       28.7345818525       12.3357173957
  C        43.9455536206       28.4202232276       11.3222195893
  C        43.3367384598       29.4253495625       10.5741553131
  C        45.4886384144       27.6552846530       13.1389263629
  C        45.4927521286       27.6809021009       14.5606247663
  C        44.8056634345       28.6889347310       15.3072690275
  C        14.8565801923        8.5630246143       15.2642308825
  C        14.8752493346        8.5631686143       12.4515590077
  C        42.9464866942       31.9616798668        5.8089931128
  C        43.6917972269       30.8855444751        5.0956012162
  C        44.6561843804       31.1914743552        4.1230991785
  C        45.2777354782       30.1718964927        3.4053843874
  C        44.9542087333       28.8215479963        3.6432069971
  C        44.0210037345       28.5238747025        4.6542509770
  C        43.3927111519       29.5406252060        5.3664273664
  C        45.5631943958       27.7241419683        2.8579273691
  C        45.5333527401       27.7174065847        1.4366280194
  C        44.8269791973       28.7075935885        0.6836636815
  C        35.0871682854       26.6441991806        0.7506346016
  C        35.0558315016       26.6167962901        3.5611421464
  C        18.1486342868        3.2470303290        5.7065734395
  C        17.4300991003        4.3438241751        4.9972948717
  C        16.4147950328        4.0525829614        4.0738043780
  C        15.7665066486        5.0832358068        3.3984474553
  C        16.1212735539        6.4284624897        3.6211107858
  C        17.1127812154        6.7118119090        4.5782439868
  C        17.7604422519        5.6828828130        5.2579923538
  C        15.4907459601        7.5241477597        2.8486787956
  C        15.4965672186        7.5074571022        1.4275480192
  C        16.1933671081        6.5057784137        0.6808533553
  H        10.6723417773       12.4654298443        3.9049378807
  H        11.6946147475       10.5506050307        2.6630904063
  H        15.3920807409       11.1692570007        4.7716021142
  H        14.3516057619       13.0720214216        6.0167623943
  H        13.3761346468       11.6310898069        1.2013436792
  H        50.3229271167       22.7484361829        3.9868144337
  H        49.3197945101       24.6229406249        2.6808252858
  H        45.6423859347       24.1613143953        4.8638305285
  H        46.6633357114       22.2903030221        6.1720416536
  H        47.6298572836       23.5759216011        1.2462650465
  H        14.8724483190        8.5884560279        4.6085808118
  H        50.2871494257       22.7026531745       12.0604450162
  H        49.2691483556       24.5755228486       13.3604958423
  H        45.6106018314       24.1092546076       11.1460382817
  H        46.6527943720       22.2539056522        9.8317766437
  H        47.6077543666       23.5518410886       14.7969043742
  H        40.6646134353       17.1311045837       11.4248576100
  H        48.6871419829       14.0949646892        7.8000534364
  H        10.6812898618       12.4662371121       12.0928371547
  H        11.6896280697       10.5243234239       13.2965423957
  H        15.3940768122       11.1597148637       11.2063363483
  H        14.3655426462       13.0881024453        9.9910979855
  H        13.3758325227       11.6220824166       14.7531195117
  H        47.9302776337       14.2183715307        9.7108397186
  H        47.7801190922       14.3738531732        6.4952887390
  H        49.0849097951       18.5527108442       10.8675802651
  H        10.4162540358       14.1342579782        7.9986449703
  H        24.4847987414        3.0292110548        3.9168178556
  H        25.6265170784        4.8882691620        2.6920158710
  H        23.2544844878        7.7552457953        4.8488423665
  H        22.1306098834        5.8865768139        6.0750102976
  H        23.8137862771        5.7937205611        1.2675481438
  H        36.3582750183       32.1907279897        3.9851266400
  H        35.2118129105       30.3720171920        2.7187341935
  H        37.4731263800       27.4374798416        4.9042884400
  H        38.5993502369       29.2694370369        6.1805744332
  H        36.9866378044       29.4556601630        1.3022027863
  H        25.7449043146        8.6113432323        4.6519813753
  H        36.4553440761       32.2470293471       12.1123367035
  H        35.3402301234       30.4361360624       13.4132181461
  H        37.5385047252       27.4895992119       11.1782550312
  H        38.6279438547       29.3124259021        9.8642804048
  H        37.0227185267       29.4768000183       14.8548493000
  H        46.1094758011       26.5876368623       11.3856282530
  H        44.6683271132       35.1162351249        7.8140132497
  H        24.4339315224        3.0399317538       12.0899161811
  H        25.5653578948        4.8788546103       13.3409702946
  H        23.1693902057        7.7684981165       11.2420375716
  H        22.0494879798        5.9176424300        9.9908884734
  H        23.7909652596        5.7943070452       14.8191535443
  H        44.9540275402       34.3906006516        9.6953163891
  H        44.9020501245       34.2069192386        6.4906712580
  H        40.6666554986       33.2095030121       10.8533395313
  H        23.1503897803        1.9580240096        8.0053464294
  H        25.8114827463       19.6533760234        3.9171684603
  H        23.6438063577       19.6902308915        2.6813417173
  H        22.3617389868       16.2005387534        4.8434292238
  H        24.5370829042       16.1748339681        6.0718033608
  H        23.7265609272       17.6550744237        1.2433883350
  H        35.1521273281       15.4542194603        3.9841446321
  H        37.2721441943       15.4206786055        2.6680594023
  H        38.6920550040       18.8177768644        4.8923316826
  H        36.5648172785       18.8336445662        6.2099435950
  H        37.2295457505       17.3992488334        1.2431104815
  H        20.3613000979       17.9648905608        4.6680286352
  H        35.2148245287       15.4473194609       12.0671308747
  H        37.3487663992       15.3984156179       13.3639879192
  H        38.7369652935       18.8403694438       11.1897376202
  H        36.5981271931       18.8698076415        9.8895099734
  H        37.2495028719       17.4002341215       14.7904471376
  H        35.1524920819       26.6919438039       11.4078257925
  H        28.5051706626       21.0781791516        7.9783059078
  H        25.7605259833       19.6312333897       12.1671456372
  H        23.5754615385       19.6857173203       13.3802345540
  H        22.3006548401       16.1891357532       11.2251045543
  H        24.4858486080       16.1564231118       10.0079176706
  H        23.7047657936       17.6482381950       14.7948190932
  H        29.0128755403       21.7154517643        9.7571557472
  H        29.1613207687       21.7409297885        6.6302931841
  H        32.1204967087       18.5424245875       10.9955539886
  H        27.4048225649       19.0732388959        8.0959375005
  H        14.8483954192       19.6455141545       12.1440207625
  H        17.0110384388       19.6918224320       13.3864022195
  H        18.3071497396       16.1927544615       11.2476415023
  H        16.1402425216       16.1616970425       10.0052569550
  H        16.9237986427       17.6932119142       14.8466612519
  H        46.0982925269       15.4549191534       12.0794082258
  H        43.9764484022       15.4108845169       13.3945280536
  H        42.5657862437       18.8382730773       11.2108700606
  H        44.6877251223       18.8569246747        9.8858452924
  H        44.0336434138       17.3570620364       14.8477896306
  H        20.2933085109       17.9299037225       11.4202366672
  H        46.0384719518       15.3900615953        4.0340064512
  H        43.9055528552       15.3352698818        2.7399107283
  H        42.5192937591       18.7920335743        4.8914012602
  H        44.6590520188       18.8336973193        6.1853419002
  H        44.0133796879       17.3307164989        1.2978350474
  H        46.1996243917       26.6827951516        4.6233947099
  H        52.7412766466       21.0626418833        8.1947154032
  H        14.8833747585       19.6719738625        3.8944804358
  H        17.0841323159       19.7415968179        2.7152487371
  H        18.3348739539       16.2240959488        4.8501450916
  H        16.1362708859       16.1782890122        6.0390474173
  H        16.9448911789       17.7049706910        1.2939889377
  H        52.3226197681       21.6732766596        6.2941455373
  H        52.0131812897       21.7020004326        9.4956096228
  H        49.0678608696       18.6077165537        5.2040223808
  H        13.2479120794       19.0159782384        7.9771536246
  H        29.9583389771       12.4457288995       12.2233994355
  H        28.8894423959       10.5161222183       13.3984599865
  H        25.2493324331       11.2090380482       11.2161671713
  H        26.3355181612       13.1292560197       10.0380610010
  H        27.1746635021       11.6707507504       14.7920491406
  H        30.9863165897       22.7871176071       12.0101589448
  H        31.9893868489       24.6691857971       13.3057232009
  H        35.6896098968       24.1473139030       11.1757063514
  H        34.6647090877       22.2741850297        9.8720251234
  H        33.6461552769       23.5939366738       14.7570883192
  H        25.7078845517        8.5953984061       11.4056271275
  H        30.8829113941       22.7065610196        3.9455330780
  H        31.8956813412       24.5765532945        2.6439589032
  H        35.5507661770       24.1324398361        4.8678128556
  H        34.5223521592       22.2627426992        6.1675111749
  H        33.5988732401       23.5795275735        1.2076159141
  H        40.5913168504       17.0886363744        4.6627079738
  H        32.5064577691       14.1450229817        8.2543810252
  H        29.9007426165       12.5318161130        3.9143767638
  H        28.8719001510       10.6295550304        2.6635924742
  H        25.2139191041       11.1776338922        4.8584046486
  H        26.2650728158       13.0642822036        6.1179327695
  H        27.1709873318       11.6858248929        1.2420146329
  H        33.3105934848       14.2260805840        6.4693607774
  H        33.4109148448       14.4094143975        9.5951780242
  H        32.1116931044       18.4985138040        5.2215885228
  H        30.2211187663       14.1893207362        8.0851548830
  H        16.1183093703        2.9634514392       12.1296345479
  H        14.9532689907        4.8206182769       13.3223630011
  H        17.3668042293        7.6859905847       11.2103798610
  H        18.5154269710        5.8184390802       10.0106311270
  H        16.7538481357        5.7397091509       14.7715523545
  H        44.8276301301       32.1403146104       11.9774242943
  H        45.9369443578       30.3414906613       13.3068446562
  H        43.6831752566       27.3781153965       11.1518513739
  H        42.6004457856       29.1899795692        9.8091884891
  H        44.2303419456       29.4367357051       14.7689786227
  H        14.8516509280        8.5465184181       11.3633341931
  H        44.8995728717       32.2341649019        3.9314988624
  H        46.0244967398       30.4131671146        2.6520170219
  H        43.7643349973       27.4841179495        4.8460604886
  H        42.6464619014       29.3178083349        6.1251121880
  H        44.2685369930       29.4705329129        1.2182398142
  H        35.0094984244       26.6268019596        4.6485315762
  H        36.6052478084       35.1341127367        8.1805570416
  H        16.1436218542        3.0130247557        3.9041323811
  H        14.9741155209        4.8564516663        2.6884189556
  H        17.3964566377        7.7472534330        4.7550178136
  H        18.5434696622        5.8933562280        5.9825845217
  H        16.7648988696        5.7556112723        1.2192876227
  H        36.2788892759       34.4822753869        6.2731316719
  H        36.3811559240       34.2089731001        9.4993479515
  H        40.5795543021       33.2021595263        5.1538747701
  H        17.4710290612        1.9474738010        7.9740400203
  H        29.2099832552       19.3051152223       12.5727472140
  H        29.5907188406       19.5520419803        3.6236213197
  H        31.7668154790       15.7768471007        3.5878971303
  H        31.5405812403       15.6778772807       12.5932329735
  H        28.2631497322       17.7378708568       14.6349754591
  H        29.7070735371       15.3431401264       14.4943464132
  H        31.3451812690       19.7497677992        1.6036282161
  H        32.7357682291       17.4064075827        1.4733222192
  H        28.9545001066       16.6630569002        1.0817934953
  H        18.8524130744        0.8684854897       12.3351722184
  H        40.5281892982       35.2288321548        3.9520259253
  H        42.3243495832       34.4190937738        3.5903205177
  H        22.0872552405        0.6919107444       12.3517275681
  H        11.5966667921       18.7130391713       12.3827412123
  H        52.2650877723       18.4313197417        3.6772289650
  H        49.2552826054       16.4770393096        3.5845185062
  H        10.1503082327       15.7982325045       12.2928105106
  H        50.8502915860       17.6924265662        3.9542249735
  H        10.0461630496       17.3945038464       12.0519230274
  H        20.2135410545        0.0018337628       12.0421054695
  H        39.1838525909       36.1244298512        3.6864526382
 Ni        30.9424105628       17.8183332148        2.9959506356
 Ni        31.0749448687       16.4228559672        0.1660335983
 Ni        29.8472752026       18.6912474472        0.0835135148
 Ni        30.1787281138       17.3824936801       13.2417919459
  O        10.6499538049       14.3650732543        5.4858291367
  O        12.6131830987       14.6574998191        6.5838855479
  O        49.1481422352       16.8458600354        7.9896994140
  O        50.3503261553       20.9358173897        5.6480118367
  O        48.3485987429       20.5933595271        6.6658864456
  O        11.0518847359       17.0537589042        6.5007302814
  O        50.3210832353       20.8816914965       10.4068630589
  O        48.3467792621       20.5868064667        9.3271657645
  O        49.5442685283       18.2484526677       10.0682044079
  O        12.3592512457       18.6246357178        7.9996965630
  O        48.6932738713       14.1485663437        6.7513041528
  O         8.2099545376       14.2103214833        9.3224900339
  O        10.7354314442       14.5067246382       10.6643176811
  O        12.5718628583       14.5828109095        9.3284909636
  O        22.8445792459        2.0431155141        5.4872003486
  O        21.6057537562        3.5923661757        6.5894550858
  O        42.0581082437       34.1373644906        7.9789721854
  O        37.9812587792       33.1365115432        5.5724263120
  O        39.2173803913       31.5750615896        6.6659631477
  O        20.3084152094        1.0395676133        6.5021434525
  O        38.0245602048       33.1855037057       10.4154765039
  O        39.2183991591       31.5829992656        9.3274568778
  O        40.6522313858       33.7693611716       10.0601565546
  O        18.2555878695        1.3761252873        7.9967352322
  O        44.6222082858       35.1005568083        6.7588094510
  O        24.2053744333        0.0000180312        9.3207794169
  O        22.7529805638        2.0577952964       10.5838824217
  O        21.6245730737        3.5961712686        9.3428983645
  O        27.4936588360       18.7552873102        5.5023673660
  O        26.7656013355       16.9332644023        6.6564848013
  O        30.6664142062       19.4034130261        8.0831141331
  O        33.5883677522       16.2741300173        5.6702868285
  O        34.2755458313       18.1679251086        6.7369545381
  O        29.5719209043       17.0579999735        6.5856194796
  O        33.6156740317       16.3251465439       10.4143828427
  O        34.3091741818       18.2425123720        9.4075298456
  O        31.7039971103       18.3119500435       10.1482115536
  O        30.3214774925       15.1553151252        8.0934745770
  O        28.5526637947       21.0327277737        6.9065503341
  O        28.5167606679       20.9515930939        9.4163934280
  O        27.4655278545       18.6786079495       10.6621807372
  O        26.6956702386       16.9301767599        9.4151006133
  O        13.1491454407       18.6928612177       10.5875075352
  O        13.9196908533       16.9162908781        9.4051790053
  O        50.5965391135       19.3502879061        8.0204149521
  O        47.6842647293       16.3267688776       10.4171074912
  O        46.9524551268       18.1759533484        9.3242326757
  O        11.0701302572       17.0153718467        9.4896416944
  O        47.6760839343       16.3355791451        5.6531003818
  O        46.9279562026       18.2358699439        6.6650542657
  O        49.5689371595       18.3177065829        5.9822812939
  O        10.3187576555       15.1000937018        7.9970583756
  O        52.6707801247       21.0278824014        9.2418216125
  O        12.1468700714       20.8911843289        6.6732313049
  O        13.1087377917       18.6134914183        5.3254853669
  O        13.9572896123       16.9870030024        6.6654114903
  O        29.9963172814       14.4471548200       10.7333483561
  O        28.0905296028       14.6538433862        9.4967405747
  O        32.1377303330       16.8511587578        8.0922204850
  O        30.9636371316       20.9496457909       10.4131038577
  O        32.9444245403       20.6110988441        9.3402091978
  O        29.5741612875       17.0760204517        9.5789582278
  O        30.8488500531       20.8858303760        5.6584265129
  O        32.8697435032       20.5876366902        6.6650648894
  O        31.6851296752       18.2543638735        6.0615955963
  O        28.2896668658       18.6735337618        8.0844403572
  O        32.4923610849       14.2144720772        9.3315594909
  O        32.4066122192       14.2128124775        6.8263437888
  O        29.9225250387       14.4392458107        5.4934634196
  O        28.0403938883       14.5890503483        6.7532769374
  O        17.8892481898        1.9665939323       10.6627803939
  O        18.9562494235        3.5271112056        9.4079464712
  O        39.1685685882       34.1386645019        7.9970884555
  O        43.2801861871       33.0589438573       10.3317042048
  O        42.0343826221       31.5064675864        9.2416278914
  O        20.3176564460        1.0368231638        9.4801039432
  O        43.2760781485       33.1826154956        5.5749053707
  O        42.0052321994       31.5841323014        6.5829886936
  O        40.5789653257       33.7749901454        5.9358831221
  O        22.3673483481        1.3846679529        7.9979428342
  O        36.6727650192       35.0997457243        9.2332385225
  O        16.4456745959        0.0641977959        6.6682494989
  O        17.9365235402        2.0433311608        5.3263933508
  O        18.9190745267        3.5931020007        6.6659352398
  O        29.7857242092       18.7576233126        4.1552782386
  O        29.8990294243       18.8420622522       12.0569228530
  O        31.2987172991       16.4075138247        4.1658280313
  O        31.3504823506       16.4785252877       12.0681083718
  O        31.9801187103       16.8510653362        1.7429246996
  O        28.3405135502       17.4429637669        1.0875448269
  O        30.4547990551       15.9652415493       14.4815855505
  O        30.5460605923       19.2127977698        1.7418343078
  O        29.0164009109       18.3212913202       14.4209224194
  O        39.4568448994       35.2437231474        4.0019531476
  O        19.1403238326        0.0039318886       11.9905933794
  O        41.9694994556       35.1726093112        4.0871489159
  O        21.6909829847       -0.0694661074       11.8958649635
  O        51.3652523567       18.6143200154        4.0054446632
  O        10.7510046710       18.7471911812       11.9049239180
  O        50.0797714173       16.4128034637        4.0916722837
  O         9.5244446854       16.4830570168       11.9911976608
 Zr         9.2974324447       16.0526850102        6.1824949382
 Zr        49.8369859630       16.0065163170        9.7462632556
 Zr        22.0735036638        0.0302948018        6.1888734113
 Zr        42.4610495794       35.1539111106        9.8011335679
 Zr        29.5968841516       19.0827149346        6.3204122895
 Zr        29.5964872380       19.1652832850        9.8829808388
 Zr        11.0387527788       19.0517238913        9.8277834949
 Zr        11.0445613624       19.1546418760        6.2509072723
 Zr        31.3546403798       16.1084383473        9.8834010904
 Zr        31.3908202437       16.0143367864        6.3081757534
 Zr        18.6012783374       -0.0010047185        9.7631432925
 Zr        18.5068479120       -0.0073519434        6.2135965722
 Zr        12.3028851077       16.3235897956        7.9903419304
 Zr        48.6174197424       18.8331980931        8.0101860241
 Zr        20.3156161623        2.4741312692        7.9905034437
 Zr        40.6436352201       32.6873567945        7.9780959784
 Zr        28.3372048341       16.3331740973        8.0816725938
 Zr        32.6402887068       18.8378413460        8.0663143324
  H        28.2990917401       17.6930758636        2.0354354222
  H        30.9224706859       19.3312893800       -0.6315848376
  H        31.2019428000       15.0249588006        0.5032987506
