     573
 i =       84, E =     -4762.8403019828
  C        11.8587871590       14.0535289687        5.7415208541
  C        12.4563235269       12.8906299361        5.0231972596
  C        11.7045426289       12.1714813680        4.0817745647
  C        12.2809398792       11.1092769239        3.3894442030
  C        13.6216079121       10.7397040529        3.6169907498
  C        14.3549095205       11.4435525618        4.5901495924
  C        13.7819936656       12.5085304193        5.2816364175
  C        14.2611314517        9.6490117089        2.8436171943
  C        14.2563472800        9.6568615713        1.4219194898
  C        13.7431395423       10.7589710623        0.6680223488
  C        49.1269232456       21.2331579616        5.8796341958
  C        48.5501995481       22.4011957213        5.1525816867
  C        49.3002062729       23.0684843249        4.1715588829
  C        48.7332865228       24.1076618943        3.4383872144
  C        47.4027713036       24.5093319901        3.6670653924
  C        46.6718418265       23.8604970581        4.6806129958
  C        47.2342849226       22.8155574205        5.4099215232
  C        46.7725022819       25.5870387262        2.8698185832
  C        46.7613169182       25.5573594957        1.4480588732
  C        47.2612415137       24.4422625445        0.7045635156
  C        14.8603433875        8.5705563866        0.7086579978
  C        14.8919553294        8.5970978029        3.5202736030
  C        49.1132747749       21.2034222193       10.1453559646
  C        48.5278783001       22.3648024216       10.8725875894
  C        49.2670714084       23.0254930003       11.8655317111
  C        48.6907323638       24.0600529999       12.5969970457
  C        47.3603452324       24.4568600936       12.3587030148
  C        46.6399594015       23.8119770229       11.3351500439
  C        47.2135312729       22.7760698110       10.6033784238
  C        46.7218429433       25.5318166542       13.1497150090
  C        46.7335122708       25.5281663429       14.5714206185
  C        47.2489062904       24.4289320235       15.3278032682
  C        40.6341080735       17.1329880923       15.3206536715
  C        40.6552162689       17.1616075906       12.5115332756
  C        11.8830726492       14.0865182421       10.2854949968
  C        12.4724642706       12.9108088340       10.9898022545
  C        11.7148605175       12.1773756586       11.9156592727
  C        12.2814806967       11.0949357055       12.5840699891
  C        13.6204105897       10.7214605165       12.3524746675
  C        14.3585068330       11.4372874524       11.3919680908
  C        13.7930429346       12.5184425725       10.7192787569
  C        14.2539791384        9.6246630793       13.1228588614
  C        14.2526055794        9.6445642959       14.5446954990
  C        13.7426125308       10.7534547251       15.2917695472
  C        22.5125978635        3.2445447100        5.7531864184
  C        23.2287210226        4.3491625604        5.0542123590
  C        24.2254802215        4.0677763345        4.1080921156
  C        24.8542406761        5.1063398668        3.4261711369
  C        24.5022352217        6.4487546390        3.6700982012
  C        23.5338290391        6.7216668599        4.6534336934
  C        22.9003383240        5.6848911042        5.3337709572
  C        25.1095533565        7.5542907436        2.8940557568
  C        25.0806760978        7.5472208869        1.4725541142
  C        24.3763889647        6.5490276147        0.7269559909
  C        38.2982823283       31.9280333529        5.8521409762
  C        37.5568150831       30.8392741703        5.1507186997
  C        36.5903778457       31.1466167779        4.1805209368
  C        35.9599673760       30.1290321094        3.4695620675
  C        36.2807003021       28.7777036390        3.7053851206
  C        37.2165419327       28.4776887312        4.7133208937
  C        37.8508296017       29.4943421445        5.4238231474
  C        35.6699957468       27.6904051659        2.9057290533
  C        35.7082736063       27.7073649972        1.4839512746
  C        36.4220975980       28.7079512630        0.7515204765
  C        25.7044336186        8.6163611755        0.7521209879
  C        25.7091813637        8.6281333163        3.5642036471
  C        38.3306323929       31.9615262598       10.1600955842
  C        37.6131413297       30.8896721163       10.9101958184
  C        36.6806692386       31.2018168998       11.9115855968
  C        36.0690697662       30.1866159868       12.6450706221
  C        36.3749039253       28.8326094301       12.4012223619
  C        37.2886635727       28.5302829299       11.3728272127
  C        37.9021505850       29.5421123323       10.6404997131
  C        35.7572161189       27.7358422533       13.1829155102
  C        35.7526289911       27.7307597768       14.6054334952
  C        36.4420397699       28.7199347520       15.3748879364
  C        46.1354422912       26.6207736185       15.2815571885
  C        46.0879485452       26.5802106551       12.4736614834
  C        22.4610595146        3.2559694125       10.2578885355
  C        23.1553222416        4.3643021087       10.9809502667
  C        24.1569706481        4.0776491198       11.9221356911
  C        24.7853803989        5.1073337720       12.6183361736
  C        24.4325548239        6.4535644981       12.3960573990
  C        23.4539536084        6.7334275768       11.4234156558
  C        22.8208152301        5.7039898307       10.7277053249
  C        25.0643932489        7.5511482359       13.1702353089
  C        25.0582291685        7.5448452100       14.5931238541
  C        24.3638336577        6.5488983186       15.3500829321
  C        26.6212170155       17.8625034029        5.7855412680
  C        25.3155365631       17.8995362581        5.0567159431
  C        25.0533500888       18.8949280693        4.1020637462
  C        23.8409669155       18.9114449876        3.4148898543
  C        22.8529156111       17.9364090808        3.6613557888
  C        23.1118008129       16.9625382915        4.6442589717
  C        24.3268034824       16.9399285671        5.3279871419
  C        21.5789996835       17.9215314738        2.8978912567
  C        21.5791935908       17.9015471439        1.4753246036
  C        22.7847936251       17.7771471590        0.7149165959
  C        34.4389519384       17.1953857470        5.9206809079
  C        35.7290731406       17.1509514018        5.1717577487
  C        35.9330666270       16.1862206369        4.1728132931
  C        37.1131967843       16.1759285177        3.4348217372
  C        38.1221315394       17.1281585798        3.6775503615
  C        37.9207135787       18.0736756252        4.7009453592
  C        36.7372167945       18.0902303485        5.4351925942
  C        39.3772143592       17.1367995899        2.8931658451
  C        39.3743643172       17.1513401186        1.4716544007
  C        38.1682388438       17.2727417601        0.7122245565
  C        20.3326069225       17.9225540992        0.7667770375
  C        20.3541332807       17.9252607613        3.5802545574
  C        34.4725109087       17.2425527097       10.1864227079
  C        35.7756061960       17.1646702875       10.9068573619
  C        35.9925702699       16.1789221553       11.8810958379
  C        37.1795601581       16.1607008326       12.6077532917
  C        38.1777438233       17.1272405603       12.3785994308
  C        37.9682347057       18.0869064902       11.3709787172
  C        36.7790409011       18.1104829997       10.6477877101
  C        39.4238498966       17.1473570946       13.1748393108
  C        39.3981804409       17.1568924768       14.5956944486
  C        38.1792342974       17.2732168892       15.3354545172
  C        35.1112877546       26.6545840472       15.3047994593
  C        35.1697322148       26.6660685858       12.4952691055
  C        26.5739745109       17.8274991474       10.3268945467
  C        25.2586898625       17.8754554202       11.0313598496
  C        24.9953616379       18.8782542394       11.9766983980
  C        23.7774880996       18.9030198053       12.6505325004
  C        22.7934103618       17.9253074774       12.4021324181
  C        23.0507318447       16.9481762516       11.4235073952
  C        24.2694194797       16.9209276599       10.7484029599
  C        21.5298916983       17.9051560728       13.1752601265
  C        21.5539962932       17.8919853941       14.5967934523
  C        22.7723332134       17.7727046477       15.3384032492
  C        14.0471723926       17.8290756608       10.2887634743
  C        15.3517930951       17.8865590115       11.0136377068
  C        15.6075830352       18.8881570512       11.9632622677
  C        16.8166319668       18.9089559558       12.6560993446
  C        17.8045326904       17.9311250051       12.4215586049
  C        17.5536224699       16.9541445661       11.4394857622
  C        16.3439830469       16.9286068428       10.7483422288
  C        19.0736248915       17.9133294807       13.1906998075
  C        19.0724272548       17.9075353925       14.6132546310
  C        17.8654611891       17.8080189258       15.3745003757
  C        46.8069691499       17.2196169616       10.1593812945
  C        45.5192566260       17.1612411190       10.9076215548
  C        45.3146796959       16.1863332893       11.8960237976
  C        44.1345736918       16.1720370211       12.6343321907
  C        43.1305632178       17.1328013689       12.4051699204
  C        43.3328199643       18.0878856029       11.3908524679
  C        44.5135600776       18.1061246048       10.6536694904
  C        41.8777568888       17.1461138616       13.1925996016
  C        41.8818552326       17.1454510886       14.6141843659
  C        43.0898776410       17.2393149883       15.3744562781
  C        20.3192377872       17.9163201723       15.3216650236
  C        20.2978957746       17.8954681066       12.5085286247
  C        46.7855208912       17.2309339245        5.8901528926
  C        45.4813846207       17.1256698901        5.1767719442
  C        45.2617308722       16.1296237583        4.2134236117
  C        44.0733284422       16.1059563461        3.4878171409
  C        43.0756826342       17.0751415121        3.7090236345
  C        43.2849660011       18.0397031807        4.7121662869
  C        44.4745632989       18.0699765954        5.4325606423
  C        41.8308248934       17.1026917637        2.9107190347
  C        41.8580322650       17.1219486604        1.4900204192
  C        43.0786331272       17.2253512667        0.7511027218
  C        46.1533115246       26.6372525525        0.7263187498
  C        46.1626089943       26.6561841423        3.5359550240
  C        14.0459820262       17.8310952544        5.7082642907
  C        15.3671250944       17.9034066480        5.0174871785
  C        15.6424806262       18.9174805976        4.0879431499
  C        16.8718294440       18.9524061818        3.4334406667
  C        17.8539438480       17.9723256125        3.6821739431
  C        17.5854168872       16.9873022739        4.6500301826
  C        16.3581815677       16.9518846634        5.3081425815
  C        19.1214877469       17.9451476319        2.9133281414
  C        19.0975130790       17.9224672290        1.4917292799
  C        17.8777131219       17.8147867481        0.7507543172
  C        28.8120178605       14.0933272660       10.3939074148
  C        28.2002783780       12.9179485785       11.0796212063
  C        28.9264138284       12.1694442917       12.0179121566
  C        28.3268969027       11.0944339779       12.6695613227
  C        26.9874869809       10.7429170324       12.4057520117
  C        26.2834183905       11.4707524783       11.4298349098
  C        26.8803215713       12.5465002616       10.7774394368
  C        26.3184972930        9.6627146478       13.1668661135
  C        26.3081122003        9.6884834834       14.5878957623
  C        26.8141030906       10.8005190803       15.3331138957
  C        32.1776080613       21.2424864363       10.1494934693
  C        32.7688183517       22.4113358131       10.8676148786
  C        32.0142969485       23.0963066369       11.8326451286
  C        32.5808714178       24.1386279725       12.5601776719
  C        33.9184895637       24.5238034550       12.3454358021
  C        34.6557407644       23.8576974134       11.3481935968
  C        34.0910663568       22.8106804701       10.6216855005
  C        34.5438265699       25.5992411217       13.1497251706
  C        34.5216412091       25.5729209192       14.5716028596
  C        34.0003957842       24.4611077131       15.3060682016
  C        25.6975440512        8.6114440866       15.3072258247
  C        25.6798923773        8.6131220881       12.4936770537
  C        32.0768604639       21.1994616891        5.8768341069
  C        32.6456037488       22.3615354413        5.1296383306
  C        31.9054240445       23.0232934399        4.1375356860
  C        32.4773357941       24.0637700743        3.4067576806
  C        33.8031684904       24.4748496363        3.6502074465
  C        34.5245573554       23.8274433937        4.6717441079
  C        33.9582748676       22.7825886437        5.3965499493
  C        34.4428167564       25.5620669861        2.8717420714
  C        34.4681246052       25.5549118858        1.4496509076
  C        33.9734822406       24.4534347688        0.6826350393
  C        40.6217424190       17.1255245936        0.7648994606
  C        40.5994703198       17.1287857702        3.5744570665
  C        28.7500096133       14.0679264133        5.8188227198
  C        28.1389000949       12.9223718831        5.0793678019
  C        28.8737968287       12.2294830042        4.1053089727
  C        28.2941383797       11.1720634677        3.4080049815
  C        26.9631627897       10.7816436536        3.6587288001
  C        26.2450983243       11.4631002922        4.6591855146
  C        26.8233892812       12.5206384092        5.3586880823
  C        26.3214245837        9.6905291092        2.8864924539
  C        26.3101682110        9.7032220125        1.4645473685
  C        26.8124458625       10.8091607799        0.7091420382
  C        18.1354402324        3.1810408247       10.3171499495
  C        17.4062376336        4.2782607345       11.0157920434
  C        16.3904472119        3.9999431038       11.9432583849
  C        15.7427677870        5.0399515019       12.6067374936
  C        16.0947851272        6.3836641421       12.3671129155
  C        17.0842401289        6.6531443286       11.4034100565
  C        17.7332980269        5.6157782854       10.7383654041
  C        15.4704370299        7.4913483133       13.1301524933
  C        15.4856330447        7.4905913963       14.5518650619
  C        16.1871839314        6.4969749792       15.3050397756
  C        42.9458518881       31.8595582817       10.0728492237
  C        43.6462173574       30.7718669525       10.8167958791
  C        44.5914983706       31.0932234983       11.8030965884
  C        45.1972158353       30.0876928924       12.5507776285
  C        44.8710804431       28.7345865190       12.3357143632
  C        43.9455621094       28.4202235664       11.3222142886
  C        43.3367435053       29.4253460692       10.5741481592
  C        45.4886316070       27.6552860651       13.1389281027
  C        45.4927771749       27.6809224490       14.5606261676
  C        44.8056560981       28.6889330340       15.3072707521
  C        14.8565725674        8.5630258628       15.2642299320
  C        14.8752644000        8.5631815912       12.4515630594
  C        42.9464830690       31.9616710550        5.8089915032
  C        43.6918309986       30.8855397775        5.0956315725
  C        44.6561923669       31.1914780199        4.1231057237
  C        45.2777446384       30.1719016656        3.4053891533
  C        44.9542249589       28.8215519655        3.6432168229
  C        44.0210525086       28.5238724561        4.6542900673
  C        43.3927559039       29.5406198942        5.3664682258
  C        45.5632203535       27.7241559985        2.8579290661
  C        45.5333415186       27.7173996113        1.4366291694
  C        44.8269936463       28.7076062794        0.6836658139
  C        35.0863566809       26.6442638967        0.7502010048
  C        35.0553486714       26.6168660530        3.5607448894
  C        18.1486307032        3.2470172861        5.7065755318
  C        17.4300900605        4.3438177564        4.9973035355
  C        16.4147843403        4.0525805513        4.0738149768
  C        15.7665047297        5.0832362085        3.3984507767
  C        16.1212693645        6.4284629824        3.6211147181
  C        17.1127857738        6.7118051490        4.5782410650
  C        17.7604394450        5.6828751416        5.2579965534
  C        15.4907564642        7.5241534759        2.8486758919
  C        15.4965671686        7.5074593025        1.4275444074
  C        16.1933930785        6.5057946836        0.6808537331
  H        10.6723336994       12.4654313626        3.9049292672
  H        11.6946040514       10.5506027657        2.6630913563
  H        15.3920618986       11.1692382175        4.7716228540
  H        14.3515816932       13.0720077318        6.0167815320
  H        13.3761009043       11.6310763468        1.2013463378
  H        50.3228999257       22.7484053492        3.9867932056
  H        49.3197737802       24.6229101708        2.6807986129
  H        45.6423759464       24.1613243279        4.8638331687
  H        46.6633143628       22.2903128961        6.1720435275
  H        47.6298152239       23.5759059180        1.2462593100
  H        14.8724319119        8.5884430554        4.6085841184
  H        50.2871146352       22.7026268194       12.0604437128
  H        49.2691306892       24.5755026310       13.3605010409
  H        45.6105844767       24.1092794701       11.1460288607
  H        46.6527602569       22.2539310030        9.8317629001
  H        47.6077154619       23.5518275593       14.7969003951
  H        40.6628079286       17.1292147515       11.4237447499
  H        48.6871331246       14.0949657297        7.8000512647
  H        10.6812951207       12.4662385280       12.0928462009
  H        11.6896358586       10.5243297818       13.2965513804
  H        15.3940670547       11.1596959183       11.2063113663
  H        14.3655172371       13.0880740847        9.9910591715
  H        13.3758063086       11.6220722404       14.7531253106
  H        47.9302571689       14.2183223056        9.7108360389
  H        47.7800919272       14.3738001378        6.4952763133
  H        49.0844553649       18.5526487367       10.8675688163
  H        10.4162105814       14.1342669532        7.9986545546
  H        24.4850499696        3.0288401562        3.9173217350
  H        25.6271553019        4.8876981702        2.6925333934
  H        23.2546851226        7.7550626393        4.8483551352
  H        22.1304675623        5.8865862684        6.0745677511
  H        23.8145588643        5.7930229051        1.2677217297
  H        36.3581909023       32.1908503707        3.9850669205
  H        35.2115340969       30.3724205568        2.7185826920
  H        37.4725379557       27.4374652130        4.9039012727
  H        38.5989208744       29.2691399175        6.1803286838
  H        36.9853909168       29.4560800406        1.3015899128
  H        25.7452740945        8.6109458760        4.6519845043
  H        36.4545162763       32.2467161681       12.1117801610
  H        35.3392953593       30.4356911301       13.4123180659
  H        37.5387418986       27.4894529394       11.1781142280
  H        38.6282254239       29.3124008611        9.8644060229
  H        37.0215677369       29.4769852103       14.8542901220
  H        46.1094747561       26.5876457539       11.3856283362
  H        44.6683348424       35.1162370653        7.8139983827
  H        24.4339262524        3.0392526728       12.0895192992
  H        25.5657769775        4.8778591361       13.3407554857
  H        23.1698821793        7.7681353462       11.2426047392
  H        22.0495666064        5.9175882635        9.9912578373
  H        23.7917489455        5.7934337141       14.8193274544
  H        44.9540215745       34.3905814693        9.6952962054
  H        44.9020570914       34.2069161965        6.4906641434
  H        40.6665731626       33.2094197716       10.8532880829
  H        23.1503934493        1.9580055564        8.0052999941
  H        25.8109149374       19.6531087545        3.9167696120
  H        23.6431352592       19.6897389421        2.6809052444
  H        22.3614589081       16.1999553625        4.8430532484
  H        24.5369904609       16.1743445409        6.0712388917
  H        23.7258739569       17.6539939735        1.2432353950
  H        35.1511824941       15.4542916401        3.9850312223
  H        37.2706047695       15.4198050374        2.6687537779
  H        38.6921659613       18.8167876317        4.8921558516
  H        36.5652291593       18.8337152774        6.2100892042
  H        37.2283283498       17.3955259459        1.2424993720
  H        20.3610994103       17.9647806836        4.6681468143
  H        35.2125765402       15.4442271715       12.0659129600
  H        37.3470236712       15.3943460039       13.3613980723
  H        38.7337383567       18.8385818883       11.1898054418
  H        36.5945091814       18.8690677278        9.8908787769
  H        37.2478603341       17.3955996895       14.7900379210
  H        35.1532881561       26.6908025879       11.4073128770
  H        28.5035623037       21.0800106222        7.9763831242
  H        25.7578791134       19.6304523660       12.1655304033
  H        23.5733611037       19.6842726731       13.3795130347
  H        22.2991081720       16.1866877693       11.2256476190
  H        24.4840642642       16.1543715200       10.0076636224
  H        23.7038180459       17.6465298618       14.7946407970
  H        29.0144066466       21.7170068576        9.7551306181
  H        29.1622111901       21.7404427401        6.6295802423
  H        32.0783793636       18.5425278790       11.0013881930
  H        27.4007444589       19.0708198537        8.0903266067
  H        14.8483459822       19.6459864569       12.1432312096
  H        17.0108983743       19.6918981083       13.3860281070
  H        18.3058235207       16.1913426811       11.2489760358
  H        16.1390654135       16.1607585612       10.0061173975
  H        16.9228228697       17.6936684958       14.8472143188
  H        46.0972928172       15.4536098063       12.0782165050
  H        43.9750138155       15.4083628832       13.3923455442
  H        42.5650420314       18.8375184995       11.2110211690
  H        44.6873812293       18.8573048483        9.8868198866
  H        44.0321894539       17.3541498860       14.8464010959
  H        20.2919511490       17.9279175349       11.4204639085
  H        46.0381493011       15.3893399656        4.0342873524
  H        43.9054549675       15.3338340631        2.7401375812
  H        42.5190869552       18.7918310544        4.8895797474
  H        44.6585821956       18.8341504744        6.1836805619
  H        44.0123601351       17.3281594932        1.2963626497
  H        46.1996342128       26.6827930461        4.6233929653
  H        52.7412536582       21.0626390372        8.1947117747
  H        14.8832745209       19.6722437904        3.8949613743
  H        17.0841192864       19.7419477677        2.7157563072
  H        18.3346901708       16.2241306707        4.8502412160
  H        16.1360332694       16.1783066057        6.0391747332
  H        16.9442049612       17.7056759083        1.2945728912
  H        52.3225908455       21.6732717750        6.2941622005
  H        52.0132057302       21.7020294948        9.4956135183
  H        49.0677820720       18.6076855590        5.2040090283
  H        13.2478437625       19.0160129885        7.9771866807
  H        29.9593334690       12.4436164541       12.2207958537
  H        28.8912414431       10.5135167810       13.3959077158
  H        25.2486339601       11.2090112677       11.2185641994
  H        26.3339969590       13.1296948851       10.0402423905
  H        27.1775245437       11.6687377662       14.7918005994
  H        30.9872351917       22.7858836853       12.0085865171
  H        31.9897772199       24.6685148710       13.3039465453
  H        35.6910663069       24.1449491391       11.1762048443
  H        34.6665950443       22.2714056156        9.8727995328
  H        33.6455103389       23.5937222683       14.7568355715
  H        25.7081183959        8.5945206704       11.4056057688
  H        30.8824295465       22.7069690295        3.9461204208
  H        31.8950596786       24.5766985846        2.6442423534
  H        35.5505611595       24.1323378855        4.8673340762
  H        34.5224024547       22.2625558021        6.1670874639
  H        33.5977181670       23.5797776263        1.2072963300
  H        40.5909405228       17.0882880634        4.6620053837
  H        32.5065652825       14.1451775966        8.2580139191
  H        29.9003912112       12.5332370927        3.9132987736
  H        28.8724190265       10.6303485507        2.6626155374
  H        25.2150719825       11.1751333559        4.8593695776
  H        26.2656113375       13.0619689540        6.1191643502
  H        27.1734445867       11.6841898880        1.2416708248
  H        33.3103528085       14.2255809947        6.4686665574
  H        33.4096077639       14.4140005236        9.5964338826
  H        32.1115924175       18.4964730898        5.2227207595
  H        30.2206431673       14.1881794621        8.0850001983
  H        16.1182952308        2.9634579421       12.1296181598
  H        14.9532639621        4.8206301322       13.3223539333
  H        17.3668080098        7.6859965661       11.2103708639
  H        18.5154217045        5.8184364341       10.0106118543
  H        16.7538650747        5.7397216919       14.7715502503
  H        44.8275928200       32.1403228509       11.9774422669
  H        45.9369221227       30.3415044520       13.3068599347
  H        43.6831938422       27.3781141628       11.1518404778
  H        42.6004534589       29.1899694484        9.8091811169
  H        44.2303360857       29.4367370493       14.7689829026
  H        14.8516546018        8.5465235125       11.3633387634
  H        44.8995662272       32.2341717129        3.9315014809
  H        46.0244847203       30.4131812069        2.6520030454
  H        43.7643914047       27.4841143861        4.8461040368
  H        42.6465252488       29.3177960123        6.1251701929
  H        44.2685363851       29.4705342222        1.2182438341
  H        35.0092096702       26.6268001392        4.6481447014
  H        36.6052612941       35.1341050540        8.1805793950
  H        16.1436064921        3.0130229176        3.9041431528
  H        14.9741104886        4.8564544938        2.6884239448
  H        17.3964620613        7.7472473587        4.7550136320
  H        18.5434678980        5.8933448813        5.9825896747
  H        16.7649141510        5.7556192182        1.2192893709
  H        36.2788805337       34.4822713017        6.2731349762
  H        36.3811815300       34.2089603986        9.4993650911
  H        40.5795268726       33.2021365469        5.1538718580
  H        17.4710426111        1.9474436864        7.9740454141
  H        29.1643744131       19.3377480532       12.5780880821
  H        29.5916984304       19.5541483190        3.6278816499
  H        31.7887576024       15.7859528984        3.5947828954
  H        31.5209777569       15.6967256075       12.6113293917
  H        28.2673876090       17.7355905990       14.6601029098
  H        29.7073490816       15.3465478763       14.4887102102
  H        31.3564967369       19.7365918430        1.6327558873
  H        32.7134943206       17.4284356030        1.4770229716
  H        28.9447505980       16.6571317515        1.0963897076
  H        18.8528199628        0.8688012804       12.3351095393
  H        40.5281835593       35.2288153280        3.9520183009
  H        42.3243156372       34.4190400049        3.5903121959
  H        22.0873779877        0.6918956027       12.3516997417
  H        11.5969203604       18.7129174447       12.3825261202
  H        52.2650462238       18.4313273434        3.6772136135
  H        49.2553478166       16.4770062363        3.5844667312
  H        10.1505834744       15.7982085829       12.2926574358
  H        50.8502589312       17.6924074312        3.9542330542
  H        10.0463240591       17.3945007325       12.0519140125
  H        20.2139841412        0.0020037172       12.0420669607
  H        39.1838589767       36.1244431202        3.6864659147
 Ni        30.9068022573       17.7969518960        2.9955062584
 Ni        31.0761158350       16.4198627389        0.1655278908
 Ni        29.8859272179       18.6730468950        0.0830896936
 Ni        30.1438944045       17.4013739292       13.2408013425
  O        10.6499402765       14.3650724517        5.4858302598
  O        12.6131841127       14.6574900600        6.5838862591
  O        49.1481065075       16.8458649355        7.9897033741
  O        50.3503167804       20.9358316884        5.6480315978
  O        48.3486070501       20.5933548376        6.6659089853
  O        11.0518375351       17.0537867595        6.5007197074
  O        50.3210398030       20.8816836698       10.4068665489
  O        48.3467646779       20.5868000664        9.3271389635
  O        49.5439001309       18.2484366726       10.0682269373
  O        12.3592006599       18.6246341019        7.9996790644
  O        48.6932590047       14.1485603560        6.7513018640
  O         8.2099397104       14.2103244409        9.3224939522
  O        10.7354303862       14.5067356860       10.6643230891
  O        12.5718664778       14.5828183062        9.3285002781
  O        22.8445645348        2.0430684710        5.4872070711
  O        21.6057474759        3.5923705726        6.5894534900
  O        42.0580989788       34.1373379527        7.9789477300
  O        37.9812454973       33.1364801256        5.5724196358
  O        39.2173336055       31.5750151246        6.6659160532
  O        20.3084103353        1.0395351633        6.5021390006
  O        38.0245407675       33.1854761056       10.4155033121
  O        39.2183665202       31.5829505778        9.3274648734
  O        40.6522219235       33.7692952647       10.0601228972
  O        18.2556069542        1.3760996604        7.9967704500
  O        44.6221993026       35.1005494334        6.7588003880
  O        24.2053788519        0.0000131610        9.3207766804
  O        22.7529579374        2.0576898268       10.5838233834
  O        21.6245607434        3.5961335307        9.3428868159
  O        27.4929196338       18.7553718622        5.5027150273
  O        26.7649560436       16.9332731353        6.6563105945
  O        30.6639010808       19.4049436095        8.0822974781
  O        33.5877707491       16.2743966360        5.6703856103
  O        34.2745897239       18.1682101726        6.7377496812
  O        29.5715556740       17.0575391747        6.5856291748
  O        33.6100408341       16.3263161835       10.4161154055
  O        34.3056860409       18.2429515838        9.4091296282
  O        31.6554541397       18.3143242156       10.1560280508
  O        30.3205907063       15.1542143911        8.0944068251
  O        28.5523218326       21.0332488432        6.9057985388
  O        28.5153300681       20.9543850980        9.4157451812
  O        27.4622900780       18.6785659621       10.6616473297
  O        26.6948548708       16.9296024406        9.4148477975
  O        13.1489633836       18.6929103400       10.5874794991
  O        13.9195764372       16.9162742269        9.4051372260
  O        50.5964466429       19.3502678610        8.0204003147
  O        47.6841470229       16.3268029451       10.4171527049
  O        46.9523055258       18.1759441002        9.3243093043
  O        11.0699900970       17.0154545293        9.4896275169
  O        47.6759646908       16.3356051961        5.6530456188
  O        46.9277009820       18.2358739295        6.6648924540
  O        49.5688966189       18.3177370813        5.9822699259
  O        10.3187347326       15.1001087040        7.9970838747
  O        52.6707717099       21.0278830331        9.2418205601
  O        12.1468587653       20.8911798898        6.6732291467
  O        13.1086926941       18.6135059262        5.3255016618
  O        13.9572268359       16.9869783672        6.6654536467
  O        29.9954906530       14.4465866454       10.7339662115
  O        28.0901345215       14.6533388719        9.4969519887
  O        32.1354449182       16.8516395393        8.0969078721
  O        30.9632360236       20.9507182899       10.4121640226
  O        32.9449115959       20.6065470817        9.3417341951
  O        29.5691889930       17.0745602798        9.5777764783
  O        30.8486315014       20.8856215936        5.6581246564
  O        32.8695024416       20.5874651832        6.6651541195
  O        31.6847335674       18.2538251071        6.0626793256
  O        28.2867653211       18.6735982213        8.0842272996
  O        32.4920377035       14.2146853991        9.3327611584
  O        32.4065600235       14.2128360586        6.8260840582
  O        29.9221765890       14.4387465734        5.4939918872
  O        28.0400532892       14.5886740488        6.7533062222
  O        17.8892602332        1.9665977064       10.6627826925
  O        18.9562637759        3.5271004696        9.4079554046
  O        39.1685668206       34.1386661347        7.9970807404
  O        43.2801837632       33.0589371517       10.3317031625
  O        42.0343811592       31.5064612963        9.2416218964
  O        20.3176494510        1.0367996892        9.4800983272
  O        43.2760776164       33.1826112252        5.5749180057
  O        42.0052270934       31.5841466913        6.5829940168
  O        40.5789557477       33.7749692293        5.9358824738
  O        22.3673377043        1.3846669818        7.9979744991
  O        36.6727667693       35.0997429878        9.2332534800
  O        16.4456802186        0.0641900188        6.6682488508
  O        17.9365102042        2.0433286093        5.3263863775
  O        18.9190606262        3.5931269590        6.6659337227
  O        29.7814148160       18.7579095122        4.1585346890
  O        29.8662140724       18.8890679582       12.0680637674
  O        31.2963647892       16.4024435673        4.1679304961
  O        31.3397798464       16.4895610204       12.0715198677
  O        31.9760432131       16.8481704265        1.7444797834
  O        28.3368801221       17.4407687445        1.0901150981
  O        30.4517012844       15.9730164742       14.4752700104
  O        30.5475167722       19.2081711897        1.7457082317
  O        29.0135031367       18.3234180591       14.4316923120
  O        39.4568395250       35.2437281596        4.0019511060
  O        19.1406904748        0.0042249214       11.9905748052
  O        41.9694751741       35.1725678242        4.0871291523
  O        21.6910460005       -0.0694784567       11.8958861913
  O        51.3652174104       18.6143216778        4.0054406394
  O        10.7511496974       18.7471584409       11.9049112031
  O        50.0798164155       16.4127990019        4.0916599305
  O         9.5246489316       16.4830300108       11.9911868472
 Zr         9.2973444244       16.0527068241        6.1824797014
 Zr        49.8368655489       16.0065426664        9.7463070526
 Zr        22.0734940474        0.0302772011        6.1888609211
 Zr        42.4610479577       35.1538439247        9.8010807909
 Zr        29.5964027225       19.0826286189        6.3226932284
 Zr        29.5828492427       19.1676555963        9.8845078619
 Zr        11.0385736605       19.0517739965        9.8277585605
 Zr        11.0444742993       19.1546606932        6.2509089995
 Zr        31.3462685059       16.1076043784        9.8892739841
 Zr        31.3910295751       16.0132925612        6.3116507974
 Zr        18.6013000755       -0.0010492333        9.7632180803
 Zr        18.5068382131       -0.0073760167        6.2135951124
 Zr        12.3027364816       16.3235734816        7.9903381561
 Zr        48.6172259165       18.8331451529        8.0101652952
 Zr        20.3155914569        2.4740929694        7.9904744285
 Zr        40.6435767379       32.6873217567        7.9781071343
 Zr        28.3361348044       16.3317929375        8.0805181058
 Zr        32.6342153923       18.8374677379        8.0671654924
  H        28.2871554729       17.6979923284        2.0355727437
  H        30.9820061037       19.2766933999       -0.6365005131
  H        31.2043147395       15.0194514765        0.4970801457
