     566
 i =      171, E =     -4712.2379077529
  C        11.8588065470       14.0535799396        5.7416277480
  C        12.4563570590       12.8906780781        5.0232886138
  C        11.7047189203       12.1718904471        4.0814684766
  C        12.2810485637       11.1096698460        3.3891019312
  C        13.6215682120       10.7396691078        3.6168925493
  C        14.3546934371       11.4431236443        4.5905007218
  C        13.7818316163       12.5080917639        5.2820687701
  C        14.2609499830        9.6488887717        2.8434886014
  C        14.2559190328        9.6566144090        1.4217691643
  C        13.7426884051       10.7586691670        0.6678037632
  C        49.1265968360       21.2333847157        5.8797822296
  C        48.5496758569       22.4011676124        5.1526296260
  C        49.2996940986       23.0685170767        4.1716363505
  C        48.7327152025       24.1075779570        3.4383762329
  C        47.4021452480       24.5091525742        3.6669474316
  C        46.6711982111       23.8602494340        4.6804505423
  C        47.2336905946       22.8154043713        5.4098614042
  C        46.7719138966       25.5868289071        2.8696402150
  C        46.7610355911       25.5572604485        1.4478778050
  C        47.2610052370       24.4421792441        0.7043939311
  C        14.8596166802        8.5701398176        0.7084917487
  C        14.8917757399        8.5969344937        3.5201209736
  C        49.1132634808       21.2034219251       10.1452920670
  C        48.5279294096       22.3648736079       10.8723350404
  C        49.2670345834       23.0253913615       11.8654756055
  C        48.6906963393       24.0599421324       12.5969308240
  C        47.3603858248       24.4569343148       12.3584831347
  C        46.6401334281       23.8122710562       11.3346851340
  C        47.2136920082       22.7763770229       10.6028893443
  C        46.7218830629       25.5318567464       13.1495240948
  C        46.7334969707       25.5281618624       14.5712320493
  C        47.2488475101       24.4289195628       15.3276324185
  C        40.6126860545       17.0996930451       15.3094202491
  C        40.6226159525       17.1636974148       12.4986657064
  C        11.8826681666       14.0864029220       10.2854141122
  C        12.4715780290       12.9102322940       10.9893442661
  C        11.7140421493       12.1775510586       11.9158807874
  C        12.2803347448       11.0949513402       12.5843164328
  C        13.6188872444       10.7204587958       12.3520719607
  C        14.3567447039       11.4353388392       11.3906466002
  C        13.7916399794       12.5166869186       10.7179588133
  C        14.2524134052        9.6237298350       13.1226042581
  C        14.2513963727        9.6438717294       14.5444646284
  C        13.7417910634       10.7529410675       15.2915418788
  C        22.5126092178        3.2424000077        5.7551766272
  C        23.2316876719        4.3448032684        5.0583650948
  C        24.2307023096        4.0597055290        4.1160169642
  C        24.8620601864        5.0961282219        3.4340350309
  C        24.5089793551        6.4383271848        3.6752820173
  C        23.5389041059        6.7151077558        4.6555275959
  C        22.9030181760        5.6805092043        5.3360308541
  C        25.1145701901        7.5426208654        2.8983648313
  C        25.0798923610        7.5368394268        1.4774241728
  C        24.3791099082        6.5351609140        0.7334440761
  C        38.3034973456       31.9230594404        5.8408287178
  C        37.5771366228       30.8330573688        5.1189121960
  C        36.6195518250       31.1395556114        4.1388539294
  C        35.9965205668       30.1234460611        3.4169464631
  C        36.3119410525       28.7695012114        3.6494346337
  C        37.2441682935       28.4707047181        4.6624753191
  C        37.8715223334       29.4858002053        5.3834211130
  C        35.6919008528       27.6800508032        2.8538352022
  C        35.7057762282       27.6941828904        1.4301409926
  C        36.4067741632       28.6921898833        0.6822909934
  C        25.6935013272        8.6112320011        0.7567285437
  C        25.7148695457        8.6153637285        3.5682594859
  C        38.3184002263       31.9570633955       10.1519932851
  C        37.5740619609       30.8821255928       10.8777515494
  C        36.6349595262       31.1918673045       11.8745535472
  C        36.0022718262       30.1757811840       12.5901437646
  C        36.2909669510       28.8190257031       12.3368545088
  C        37.2052576433       28.5193165549       11.3075391123
  C        37.8399501214       29.5324802892       10.5921142502
  C        35.6695838713       27.7231291879       13.1235730056
  C        35.6939145953       27.7164825662       14.5476493342
  C        36.4012357636       28.7028810577       15.3051120241
  C        46.1354470661       26.6207909248       15.2813503633
  C        46.0879432734       26.5802225028       12.4734574982
  C        22.4596770601        3.2542848879       10.2573870190
  C        23.1522536465        4.3614970806       10.9819397541
  C        24.1553688249        4.0733415257       11.9209028872
  C        24.7819971679        5.1020112954       12.6197023378
  C        24.4247899703        6.4474681003       12.4015105916
  C        23.4448022023        6.7289694087       11.4309215280
  C        22.8137135527        5.7006364527       10.7324473666
  C        25.0533522274        7.5449749399       13.1767788993
  C        25.0489990286        7.5374777427       14.5993724218
  C        24.3629744693        6.5362283837       15.3566380999
  C        26.5589455611       17.8177229321        5.7474246485
  C        25.2519747076       17.8721648092        5.0306070265
  C        24.9887714871       18.8914124747        4.1020711805
  C        23.7766343372       18.9218349043        3.4178411467
  C        22.7958948103       17.9340305001        3.6373052940
  C        23.0541004472       16.9370145684        4.5962924103
  C        24.2669181091       16.9038455932        5.2823583082
  C        21.5326202257       17.9297301786        2.8606518619
  C        21.5532210499       17.9464569386        1.4391246539
  C        22.7706034647       17.8418308129        0.6956857288
  C        34.4482662215       17.1839371871        5.9546878377
  C        35.7367180131       17.1309521339        5.2026671201
  C        35.9429400326       16.1461630038        4.2237509931
  C        37.1167647082       16.1307369757        3.4745894258
  C        38.1196003734       17.0970734641        3.6855822729
  C        37.9166415164       18.0630995933        4.6897817321
  C        36.7387946470       18.0855612355        5.4340387117
  C        39.3708036857       17.1011715765        2.8908165611
  C        39.3618767922       17.1059787585        1.4683965540
  C        38.1513479147       17.2144437029        0.7141021814
  C        20.3171245889       17.9831147472        0.7149090481
  C        20.3006882158       17.9100890622        3.5268053740
  C        34.4081643104       17.2568042683       10.2175556212
  C        35.7197339667       17.1854352574       10.9241491499
  C        35.9595115283       16.1777092143       11.8723033581
  C        37.1527866704       16.1533552590       12.5880661140
  C        38.1403604737       17.1352901683       12.3770000140
  C        37.9097092489       18.1168570560       11.3944823121
  C        36.7135335805       18.1462694516       10.6803906886
  C        39.3931899247       17.1427723162       13.1673425365
  C        39.3731895625       17.1280977164       14.5894255031
  C        38.1568832422       17.2245273896       15.3369349907
  C        35.0648538925       26.6412487859       15.2603673457
  C        35.0580168320       26.6571725385       12.4482826489
  C        26.6377119213       17.8173797466       10.3418989460
  C        25.3351396809       17.9131309224       11.0601816035
  C        25.0901992929       18.9219288626       12.0043617128
  C        23.8599993270       18.9851462343       12.6571193740
  C        22.8466010110       18.0414774690       12.3907217180
  C        23.0904884563       17.0573591532       11.4152106070
  C        24.3171954729       16.9916717940       10.7613090738
  C        21.5691275140       18.0397817187       13.1430676987
  C        21.5714173066       18.0040111028       14.5640763728
  C        22.7786941014       17.8691513781       15.3202476846
  C        14.0537785533       17.8414093658       10.2771869530
  C        15.3724669779       17.9317725671       10.9746329023
  C        15.6305712891       18.9587474446       11.8964213226
  C        16.8495616045       19.0104900754       12.5699554695
  C        17.8453344688       18.0384308128       12.3452247695
  C        17.5944837966       17.0394778942       11.3857612698
  C        16.3748446941       16.9836874247       10.7125884689
  C        19.1111891987       18.0358898974       13.1224196135
  C        19.0891076049       18.0098913593       14.5448437690
  C        17.8712338717       17.8940403127       15.2868454762
  C        46.8013195159       17.2182914744       10.1577204405
  C        45.5063065323       17.1555056183       10.8978283423
  C        45.2889716204       16.1699849437       11.8733800550
  C        44.1034084641       16.1518054162       12.6041650333
  C        43.1034282786       17.1197383660       12.3838459479
  C        43.3174124643       18.0841054895       11.3802341644
  C        44.5033157926       18.1055381750       10.6495867935
  C        41.8493043864       17.1322788819       13.1736993575
  C        41.8575416101       17.1174748009       14.5963079695
  C        43.0686650383       17.2047998538       15.3526886384
  C        20.3254202461       18.0107885352       15.2704872587
  C        20.3455232724       18.0353194297       12.4581609624
  C        46.7840727627       17.2320741047        5.8859306006
  C        45.4820553544       17.1262431079        5.1655741674
  C        45.2650164714       16.1260417322        4.2053182095
  C        44.0774566883       16.0955528008        3.4776725389
  C        43.0756652280       17.0624513201        3.6918382459
  C        43.2840724062       18.0338845796        4.6890790770
  C        44.4725765688       18.0704366907        5.4122101711
  C        41.8267510708       17.0784760944        2.8967067855
  C        41.8464846285       17.0884618148        1.4751451334
  C        43.0632586092       17.1899091766        0.7296270718
  C        46.1531046390       26.6371758747        0.7261132072
  C        46.1619292371       26.6559367107        3.5357566058
  C        14.0387625429       17.8240017044        5.6997925792
  C        15.3457911996       17.8843381647        4.9839262548
  C        15.6088629296       18.9028931014        4.0557064619
  C        16.8264322623       18.9376274413        3.3805371992
  C        17.8079463213       17.9524392057        3.6080812850
  C        17.5486365521       16.9567217253        4.5678335005
  C        16.3332110158       16.9218379941        5.2470293850
  C        19.0774533132       17.9439391147        2.8443224040
  C        19.0721918423       17.9611701559        1.4228133671
  C        17.8630821977       17.8717943391        0.6630651993
  C        28.7326067040       14.0888036875       10.3594632918
  C        28.1354304756       12.9179782970       11.0592455035
  C        28.8614859420       12.2139396724       12.0314951821
  C        28.2747709515       11.1386591934       12.6938396998
  C        26.9506062867       10.7470020402       12.4088227376
  C        26.2477714886       11.4346119680       11.4031154736
  C        26.8311860847       12.5091975494       10.7385689218
  C        26.2925496979        9.6646353949       13.1728396666
  C        26.2798180568        9.6921776310       14.5934386259
  C        26.7693026151       10.8113378192       15.3388156831
  C        32.0524926322       21.1794427054       10.1940983980
  C        32.6301331868       22.3588527282       10.9026376134
  C        31.9024420993       23.0300507219       11.8985481003
  C        32.4766334771       24.0897153729       12.5977339361
  C        33.7961527070       24.5083138521       12.3295916987
  C        34.5014388618       23.8563022488       11.2990818028
  C        33.9303505455       22.7956497684       10.5985477389
  C        34.4413100696       25.5897485972       13.1152389121
  C        34.4585159206       25.5599936026       14.5385946945
  C        33.9675302005       24.4422798166       15.2846782304
  C        25.6815837733        8.6084475803       15.3124806744
  C        25.6627746896        8.6094310988       12.5001820179
  C        32.0945506317       21.1638593753        5.8340622953
  C        32.6633177265       22.3347169845        5.0962894974
  C        31.9344901049       22.9808047221        4.0855036514
  C        32.5033824538       24.0310437812        3.3658302921
  C        33.8192181259       24.4644090137        3.6286434835
  C        34.5284447867       23.8317293084        4.6686805990
  C        33.9625321292       22.7818822841        5.3884523577
  C        34.4588832134       25.5494320057        2.8430926784
  C        34.4679788277       25.5393541804        1.4195026342
  C        33.9717220829       24.4325139126        0.6615097513
  C        40.6065663591       17.0864344397        0.7550635133
  C        40.5973310344       17.1046061547        3.5654157918
  C        28.7436866287       14.0580609379        5.8087850708
  C        28.1348929523       12.9122880202        5.0742934965
  C        28.8617027373       12.2374394995        4.0820031135
  C        28.2821867108       11.1788519082        3.3876441243
  C        26.9604783138       10.7717937402        3.6597591797
  C        26.2515748800       11.4353234028        4.6783084311
  C        26.8295461906       12.4937026486        5.3753655140
  C        26.3174579474        9.6821393171        2.8896890056
  C        26.2937047831        9.7011408131        1.4685064040
  C        26.7747075031       10.8173898398        0.7145799364
  C        18.1351716025        3.1806526345       10.3170872171
  C        17.4056179149        4.2777718879       11.0156709871
  C        16.3898880825        3.9992110591       11.9431226740
  C        15.7418975889        5.0390561281       12.6065802131
  C        16.0935408518        6.3828499644       12.3669240288
  C        17.0829240175        6.6525752050       11.4032129681
  C        17.7322776404        5.6153654860       10.7381934976
  C        15.4690044321        7.4904517339       13.1299699952
  C        15.4844394603        7.4898850632       14.5516914974
  C        16.1861628564        6.4963817909       15.3048509393
  C        42.9455903705       31.8594395834       10.0727788602
  C        43.6460275260       30.7717336962       10.8166165792
  C        44.5916680892       31.0931272817       11.8025697728
  C        45.1974647820       30.0876449295       12.5502390930
  C        44.8710369683       28.7345694143       12.3354803378
  C        43.9451545221       28.4201543470       11.3223422956
  C        43.3362212202       29.4252350215       10.5742997818
  C        45.4886640663       27.6553163014       13.1387115128
  C        45.4927959400       27.6809422192       14.5604104414
  C        44.8057749379       28.6890453902       15.3070206772
  C        14.8555381061        8.5624346724       15.2640410100
  C        14.8735616154        8.5621123729       12.4513599137
  C        42.9463837861       31.9615285387        5.8090568793
  C        43.6914727370       30.8853418953        5.0955131753
  C        44.6562663778       31.1912360235        4.1234039033
  C        45.2777181128       30.1716636737        3.4055962623
  C        44.9536808596       28.8213662560        3.6429745796
  C        44.0199718755       28.5236963494        4.6535469191
  C        43.3917755917       29.5404531720        5.3658072345
  C        45.5627107770       27.7239701810        2.8576966197
  C        45.5331363583       27.7173413634        1.4363957177
  C        44.8269748034       28.7076616746        0.6834166353
  C        35.0701963500       26.6302603075        0.7076593548
  C        35.0825915354       26.6076504597        3.5188080057
  C        18.1484653224        3.2466548525        5.7065555776
  C        17.4298405973        4.3434749191        4.9971884319
  C        16.4144724912        4.0522481055        4.0737706769
  C        15.7661504935        5.0829018795        3.3983978543
  C        16.1209394136        6.4281396949        3.6209651346
  C        17.1125104820        6.7114752681        4.5780381548
  C        17.7601812514        5.6825495002        5.2578033330
  C        15.4903844516        7.5238602018        2.8485353723
  C        15.4959686799        7.5071038030        1.4273859234
  C        16.1926070271        6.5053321549        0.6806666973
  H        10.6726236193       12.4660948861        3.9043772969
  H        11.6947251309       10.5512732123        2.6625254290
  H        15.3916722780       11.1683965119        4.7723463698
  H        14.3512652458       13.0710709003        6.0177220003
  H        13.3759310866       11.6309416611        1.2010484858
  H        50.3224387656       22.7485636315        3.9869588985
  H        49.3192004294       24.6228833403        2.6808268008
  H        45.6416904250       24.1609871971        4.8635907917
  H        46.6626832326       22.2901520556        6.1719532268
  H        47.6294853042       23.5757774888        1.2460780467
  H        14.8723509121        8.5883051751        4.6084343618
  H        50.2869861729       22.7023598374       12.0605739952
  H        49.2690160654       24.5752355797       13.3605957918
  H        45.6108334665       24.1097346170       11.1454006312
  H        46.6529704890       22.2544367885        9.8310998247
  H        47.6076593774       23.5518026616       14.7967549347
  H        40.6250559246       17.1481718775       11.4103676143
  H        48.6869771089       14.0950743032        7.7998685360
  H        10.6807876559       12.4671606827       12.0936559885
  H        11.6885022219       10.5250115253       13.2973439423
  H        15.3919496533       11.1568756271       11.2043015822
  H        14.3640631439       13.0856071522        9.9891466236
  H        13.3749472575       11.6215433831       14.7529000103
  H        47.9300278411       14.2184095666        9.7110123621
  H        47.7800043739       14.3738996967        6.4951822255
  H        49.0830781083       18.5519728362       10.8671242693
  H        10.4161340375       14.1343941232        7.9988381894
  H        24.4890920675        3.0199474002        3.9284077564
  H        25.6367082110        4.8764900805        2.7025433868
  H        23.2606016527        7.7493825370        4.8467686767
  H        22.1312824709        5.8831612221        6.0745657286
  H        23.8238575021        5.7750509924        1.2751999007
  H        36.3845005574       32.1836121326        3.9453201309
  H        35.2525221399       30.3719079654        2.6631704770
  H        37.5011375758       27.4306685491        4.8531534910
  H        38.6132712487       29.2556928440        6.1448631719
  H        36.9819055779       29.4401648936        1.2205122628
  H        25.7582887726        8.5944432667        4.6556654936
  H        36.4212436925       32.2367324546       12.0885823703
  H        35.2722162274       30.4279571763       13.3562189010
  H        37.4432083743       27.4780612940       11.0998008587
  H        38.5675967093       29.2995447273        9.8182415312
  H        36.9728414551       29.4587543217       14.7743317612
  H        46.1094308624       26.5876621277       11.3854233166
  H        44.6683791953       35.1161645920        7.8139799776
  H        24.4344313425        3.0348867434       12.0841928337
  H        25.5639891035        4.8727222201       13.3404336877
  H        23.1583761830        7.7637658662       11.2545230768
  H        22.0411435110        5.9140121159        9.9973630759
  H        23.7948108250        5.7774700282       14.8263725855
  H        44.9543160282       34.3906458861        9.6952216276
  H        44.9022645681       34.2068852279        6.4907178693
  H        40.6634982087       33.2070016181       10.8518696949
  H        23.1501712979        1.9572350964        8.0058231706
  H        25.7444359834       19.6547494294        3.9321479543
  H        23.5748573944       19.7172725350        2.7037089487
  H        22.3070879680       16.1655380480        4.7716438378
  H        24.4803895042       16.1213992619        6.0068296895
  H        23.7035570364       17.7062187725        1.2350639194
  H        35.1658316939       15.4040859757        4.0566729883
  H        37.2724096549       15.3600321501        2.7227335330
  H        38.6815275018       18.8185821419        4.8574585233
  H        36.5668255798       18.8477472951        6.1905324140
  H        37.2115774506       17.3232771728        1.2481954637
  H        20.2932355178       17.9215869774        4.6152744660
  H        35.1955378363       15.4229438312       12.0431488174
  H        37.3337439933       15.3684042401       13.3191646599
  H        38.6654095589       18.8809387890       11.2240200998
  H        36.5186237557       18.9208800553        9.9422965658
  H        37.2207667259       17.3414028164       14.7985426184
  H        35.0181104944       26.6844222097       11.3607920345
  H        28.5004853734       21.1036945846        7.7130432617
  H        25.8712549269       19.6515705247       12.2080733932
  H        23.6707407334       19.7723072385       13.3838549187
  H        22.3191315069       16.3197088660       11.2037166867
  H        24.5169239461       16.2204451394       10.0216942044
  H        23.7184847583       17.7538979592       14.7889191065
  H        28.9127946708       21.7395485347        9.6494918818
  H        29.2215368102       21.6745709303        6.3804791714
  H        32.0303833789       18.6078108892       10.9611896477
  H        27.3439173855       19.0883845242        8.0012956957
  H        14.8635965590       19.7096596016       12.0724462540
  H        17.0427988586       19.8095558750       13.2825757996
  H        18.3529511270       16.2812886318       11.2016885075
  H        16.1699765904       16.1974995734        9.9896695253
  H        16.9363559000       17.7908382377       14.7439472751
  H        46.0665037776       15.4312115826       12.0533446065
  H        43.9378571169       15.3794779068       13.3521489480
  H        42.5552704235       18.8402985782       11.2035629396
  H        44.6828563286       18.8652475906        9.8924057526
  H        44.0092925144       17.3185139974       14.8214584455
  H        20.3544924338       18.0771543640       11.3703400853
  H        46.0424323224       15.3856063044        4.0310708740
  H        43.9132711375       15.3178234051        2.7349492661
  H        42.5168965359       18.7858116579        4.8618681746
  H        44.6523730962       18.8392427736        6.1597268620
  H        43.9999214476       17.2915789071        1.2701258522
  H        46.1986968425       26.6824605159        4.6232045541
  H        52.7411142286       21.0626022761        8.1947146499
  H        14.8505424610       19.6634516274        3.8836208279
  H        17.0324527140       19.7343474018        2.6690286396
  H        18.2978187937       16.1886415021        4.7485537318
  H        16.1185896597       16.1432925278        5.9751416132
  H        16.9218999677       17.7511307174        1.1913042111
  H        52.3225436527       21.6734010962        6.2944783270
  H        52.0128274609       21.7019421066        9.4954341323
  H        49.0674294362       18.6077137959        5.2040492202
  H        13.2474949546       19.0167804384        7.9728539064
  H        29.8795211942       12.5264929022       12.2549594721
  H        28.8383659477       10.5884540010       13.4442099294
  H        25.2244988728       11.1415509493       11.1775836582
  H        26.2870122209       13.0620262746        9.9768342106
  H        27.1142184247       11.6866564567       14.7971246580
  H        30.8901199833       22.7012005888       12.1220183738
  H        31.9032131681       24.6059619272       13.3645627683
  H        35.5214076346       24.1653423947       11.0795993260
  H        34.4855363987       22.2737812677        9.8225484684
  H        33.6121006831       23.5688796311       14.7457775953
  H        25.6928972842        8.5893079789       11.4122347182
  H        30.9258218981       22.6383499732        3.8647715761
  H        31.9259799719       24.5299829778        2.5905794194
  H        35.5470360845       24.1491410195        4.8824680346
  H        34.5211007718       22.2755537877        6.1720589509
  H        33.6199884031       23.5517124468        1.1909468540
  H        40.5940100971       17.0745540877        4.6533494689
  H        32.5110945127       14.1467289380        8.2498673630
  H        29.8795371779       12.5584245085        3.8723331075
  H        28.8523729664       10.6498901307        2.6270907277
  H        25.2287809898       11.1331130250        4.8937343935
  H        26.2795186549       13.0229026175        6.1497572279
  H        27.1234159573       11.6971886228        1.2476232156
  H        33.3102389035       14.2333835626        6.4692119931
  H        33.4024926586       14.3894582791        9.6149092704
  H        32.1048083613       18.3994833628        5.1305026671
  H        30.1999328398       14.1313673647        8.0795518960
  H        16.1180488337        2.9626521613       12.1295334487
  H        14.9524431686        4.8195003847       13.3221827108
  H        17.3651849314        7.6855031882       11.2101298986
  H        18.5143124293        5.8182050204       10.0103944337
  H        16.7527097398        5.7390422107       14.7713407351
  H        44.8279673118       32.1402162340       11.9766793016
  H        45.9374028700       30.3414688597       13.3060890833
  H        43.6824831521       27.3780686555       11.1522934619
  H        42.5995191971       29.1898375944        9.8097328902
  H        44.2305761124       29.4369119216       14.7686894689
  H        14.8497222018        8.5452497395       11.3631426377
  H        44.9000457813       32.2339005915        3.9321715940
  H        46.0248088858       30.4128925513        2.6525433205
  H        43.7628314593       27.4839762735        4.8449264910
  H        42.6451284431       29.3176676543        6.1241169898
  H        44.2685543212       29.4706271081        1.2179802598
  H        35.0491304316       26.6222672802        4.6066913699
  H        36.6052433300       35.1333916953        8.1810541215
  H        16.1432667314        3.0126902143        3.9041192399
  H        14.9737038017        4.8560550666        2.6884480555
  H        17.3962288855        7.7469099715        4.7547786895
  H        18.5432269070        5.8930283058        5.9823703852
  H        16.7641837853        5.7551841154        1.2190837959
  H        36.2782720870       34.4819657682        6.2729736574
  H        36.3807911083       34.2091664401        9.5005304430
  H        40.5799477389       33.2019296313        5.1535377882
  H        17.4712035899        1.9463588717        7.9740470122
  H        28.7690250750       18.6781964320        3.7539595386
  H        31.8836342068       15.6968515127        3.5977426873
  H        32.3408715108       16.3591872300       12.3695320755
  H        28.2332901849       17.8290316315       14.0448772090
  H        29.0746471649       14.4809748626       14.6573361053
  H        32.0862804790       17.1326999226        1.1371199515
  H        18.8537265179        0.8687404098       12.3352360975
  H        40.5282526769       35.2288868965        3.9520892840
  H        42.3240501130       34.4191002073        3.5900702837
  H        22.0871607288        0.6925583853       12.3510787031
  H        11.5966924562       18.7126479562       12.3831227377
  H        52.2651463515       18.4316838317        3.6780266661
  H        49.2556680420       16.4763171249        3.5842424420
  H        10.1501573346       15.7981153375       12.2925722750
  H        50.8502831618       17.6925671738        3.9539391990
  H        10.0459952465       17.3944849397       12.0519768286
  H        20.2154819614        0.0018337512       12.0418471205
  H        39.1837260591       36.1245230914        3.6871206256
 Ni        30.4857121133       17.3912400132        2.8250583999
 Ni        30.6878729939       15.6730623612        0.0849492562
 Ni        29.6782651966       17.7670472706        0.0069327922
 Ni        30.2674259040       17.2331825275       13.0762783132
  O        10.6499811152       14.3651173812        5.4858851077
  O        12.6131950237       14.6576151244        6.5840004705
  O        49.1477120273       16.8458915622        7.9897670453
  O        50.3500734728       20.9362387088        5.6482650381
  O        48.3484480860       20.5932581901        6.6659773290
  O        11.0515696496       17.0536570408        6.5008543565
  O        50.3210635603       20.8816744540       10.4068429172
  O        48.3467385103       20.5867064070        9.3271166300
  O        49.5439184670       18.2483473755       10.0683416993
  O        12.3593490690       18.6245722775        7.9998980660
  O        48.6931856747       14.1486603044        6.7512459136
  O         8.2097461045       14.2106038005        9.3226793076
  O        10.7351384835       14.5068069332       10.6642989489
  O        12.5718066307       14.5829283934        9.3286260828
  O        22.8440626579        2.0412511308        5.4879317718
  O        21.6050969488        3.5916602187        6.5899340207
  O        42.0575277298       34.1367000676        7.9790007501
  O        37.9813971332       33.1327341910        5.5705463211
  O        39.2159937149       31.5728316590        6.6639063777
  O        20.3080774546        1.0389958609        6.5018990060
  O        38.0223782119       33.1820070760       10.4165678073
  O        39.2167946156       31.5816932900        9.3288392869
  O        40.6520366465       33.7689198716       10.0600679465
  O        18.2560726541        1.3754155909        7.9967712402
  O        44.6222229543       35.1004722627        6.7588102198
  O        24.2053660132       -0.0000614917        9.3207847682
  O        22.7526957748        2.0564278431       10.5832971870
  O        21.6238741485        3.5951668939        9.3421599872
  O        27.4535754708       18.6796660980        5.4161114699
  O        26.6889395229       16.9261805361        6.6534973828
  O        30.6190505790       19.3500943521        7.9892089400
  O        33.5971791086       16.2624632159        5.7448386477
  O        34.2740647010       18.1785887079        6.7466239810
  O        29.5391381875       17.0041676825        6.5709469653
  O        33.5454967416       16.3462874108       10.4887396702
  O        34.2258837813       18.2387741059        9.4182860954
  O        31.5628877707       18.3077584634       10.1646480329
  O        30.2871735627       15.0980921616        8.0853896213
  O        28.5511765799       21.0270007851        6.6693563804
  O        28.5093066270       20.9560412005        9.2414090996
  O        27.5876359488       18.6171114090       10.6679727541
  O        26.6962735180       16.9373982923        9.4140634635
  O        13.1483204794       18.6939089141       10.5865432984
  O        13.9210352741       16.9172483449        9.4061709753
  O        50.5960819867       19.3501592384        8.0210547935
  O        47.6804171793       16.3277788214       10.4179673164
  O        46.9513487539       18.1761770425        9.3249554324
  O        11.0693121030       17.0155527411        9.4894154322
  O        47.6751279133       16.3359705906        5.6525359429
  O        46.9250232134       18.2357393238        6.6630414916
  O        49.5684504761       18.3177123873        5.9823695913
  O        10.3188282628       15.1002432974        7.9971772381
  O        52.6706970087       21.0279859360        9.2418491111
  O        12.1468139688       20.8911862544        6.6732995175
  O        13.1048800621       18.6141357839        5.3258087683
  O        13.9570425916       16.9872160497        6.6639702230
  O        29.9193116728       14.4420840937       10.6677897051
  O        27.9977289091       14.6576536516        9.4822522523
  O        32.0708866146       16.8519787138        8.0898282880
  O        30.8583049005       20.8148901723       10.5065803255
  O        32.7891802925       20.5957405617        9.3321505759
  O        29.5533688093       17.0715714091        9.4983019735
  O        30.8863739356       20.8146223064        5.5745513192
  O        32.8694595608       20.5828848636        6.6659433097
  O        31.6731450268       18.2375279895        5.9875071619
  O        28.2229877713       18.6760124249        7.9911783316
  O        32.4883770540       14.2145840940        9.3283663886
  O        32.4068819169       14.2077203348        6.8273820330
  O        29.9145072414       14.4307764189        5.4879839320
  O        28.0309697281       14.5811696001        6.7424439066
  O        17.8891089104        1.9662625945       10.6628004826
  O        18.9560794421        3.5269444379        9.4080370830
  O        39.1683053039       34.1380516055        7.9973269984
  O        43.2801342185       33.0587817519       10.3316539473
  O        42.0340601980       31.5064533919        9.2415828297
  O        20.3170746467        1.0358851283        9.4803298640
  O        43.2760568391       33.1824481579        5.5748835705
  O        42.0051361836       31.5841080229        6.5830568200
  O        40.5785710850       33.7743650362        5.9358473301
  O        22.3669716452        1.3841371174        7.9980341862
  O        36.6728963171       35.0995754554        9.2335346649
  O        16.4456564982        0.0635982348        6.6680639596
  O        17.9363873766        2.0429885909        5.3264237499
  O        18.9188843213        3.5930215262        6.6658821145
  O        29.6890071868       18.6100194141        4.0716550758
  O        31.4262225665       16.3400143448        4.1680394160
  O        31.4282870060       16.1961855814       12.0684339040
  O        31.5530429958       16.4077536530        1.5202151724
  O        30.0317864563       14.6537532939       14.5768443663
  O        29.1529835181       18.0920067969       14.2390106818
  O        39.4568479703       35.2436380442        4.0020160539
  O        19.1416661043        0.0042934741       11.9904737425
  O        41.9694281877       35.1725551654        4.0871596704
  O        21.6911134288       -0.0694038297       11.8959963894
  O        51.3649536417       18.6144226053        4.0053641108
  O        10.7511876669       18.7471725135       11.9050765306
  O        50.0799929691       16.4127373479        4.0917705417
  O         9.5243352931       16.4830724805       11.9911578588
 Zr         9.2970336161       16.0527451999        6.1823170031
 Zr        49.8360611176       16.0069283308        9.7465196151
 Zr        22.0732150037        0.0294880663        6.1891046635
 Zr        42.4608920868       35.1529728465        9.8009305518
 Zr        29.5706664994       19.0126620896        6.1739880697
 Zr        29.5431569277       19.1726129861        9.6964443107
 Zr        11.0383530546       19.0518284942        9.8282150223
 Zr        11.0434855155       19.1549212436        6.2514363127
 Zr        31.2967215067       16.0658275007        9.8844675288
 Zr        31.3732114026       15.9810638091        6.2771876794
 Zr        18.6013527553       -0.0021843050        9.7640571102
 Zr        18.5063522718       -0.0089374856        6.2134089841
 Zr        12.3024501985       16.3235884108        7.9911579039
 Zr        48.6161925089       18.8329785793        8.0101759668
 Zr        20.3147443435        2.4730465494        7.9903911515
 Zr        40.6423606722       32.6861856441        7.9782080942
 Zr        28.3041050276       16.2991923757        8.0474084018
 Zr        32.6045887356       18.8069236572        8.0209681229
  H        29.5314665947       17.9335906970        1.6254277564
  H        30.1099437674       15.2999905029       13.7942540075
