     573
 i =      178, E =     -4762.8216560534
  C        11.8588865387       14.0535701373        5.7415279701
  C        12.4564033882       12.8906686728        5.0231956641
  C        11.7045944997       12.1715529712        4.0817755414
  C        12.2809620205       11.1093378253        3.3894442379
  C        13.6216223654       10.7397558003        3.6169894530
  C        14.3549637963       11.4436016784        4.5901148410
  C        13.7820831714       12.5085995971        5.2816008906
  C        14.2610874983        9.6490395576        2.8436160101
  C        14.2563581161        9.6569174802        1.4219190446
  C        13.7431600209       10.7590390942        0.6680326398
  C        49.1269181144       21.2331815490        5.8796522531
  C        48.5501662148       22.4012508713        5.1526045510
  C        49.3001993429       23.0685572947        4.1716242352
  C        48.7332611260       24.1077073571        3.4384208026
  C        47.4027462351       24.5093495575        3.6670974553
  C        46.6718039257       23.8604997575        4.6806183895
  C        47.2342559336       22.8155865591        5.4099574855
  C        46.7724238689       25.5870042080        2.8698279932
  C        46.7612253913       25.5573234756        1.4480705339
  C        47.2610939135       24.4421887500        0.7045917993
  C        14.8602538526        8.5705529323        0.7086665566
  C        14.8919082000        8.5971360621        3.5202769794
  C        49.1133297958       21.2034689917       10.1453175694
  C        48.5278776565       22.3648088633       10.8726401535
  C        49.2670964710       23.0255109320       11.8655454437
  C        48.6907303349       24.0600316992       12.5970567692
  C        47.3603487584       24.4568292040       12.3587523606
  C        46.6399458228       23.8119200165       11.3352334578
  C        47.2135372182       22.7760529287       10.6034203110
  C        46.7218356226       25.5317900426       13.1497483879
  C        46.7334125828       25.5281102480       14.5714518572
  C        47.2487952612       24.4288685984       15.3278318019
  C        40.6354985234       17.1544002491       15.3229233467
  C        40.6553810992       17.1845703132       12.5141730851
  C        11.8830881519       14.0866144717       10.2855652910
  C        12.4724973878       12.9109317515       10.9899184304
  C        11.7148534443       12.1774159653       11.9156704702
  C        12.2814747936       11.0949683470       12.5840728420
  C        13.6204401458       10.7215892123       12.3525400852
  C        14.3586029130       11.4375266543       11.3921748885
  C        13.7931301708       12.5186902153       10.7195063377
  C        14.2539968823        9.6247555055       13.1228812560
  C        14.2525730860        9.6446023714       14.5447178044
  C        13.7426536454       10.7535358780       15.2917797186
  C        22.5104104928        3.2442550257        5.7526138236
  C        23.2213672819        4.3501772184        5.0516196837
  C        24.2150969047        4.0719940244        4.1015863600
  C        24.8379339953        5.1130761760        3.4183062997
  C        24.4824759483        6.4539703648        3.6652371969
  C        23.5170975456        6.7236253672        4.6522423392
  C        22.8895156575        5.6844682220        5.3338017315
  C        25.0848665040        7.5619219801        2.8898997288
  C        25.0559825391        7.5563433285        1.4685771314
  C        24.3528022443        6.5580833099        0.7220243718
  C        38.3034964867       31.9298713580        5.8487254981
  C        37.5756038236       30.8396160509        5.1378528691
  C        36.6175519211       31.1424534811        4.1584401953
  C        36.0025157843       30.1213598344        3.4392801818
  C        36.3304950439       28.7727017269        3.6790951941
  C        37.2591424609       28.4772268702        4.6946573566
  C        37.8785030860       29.4970831962        5.4122470112
  C        35.7300711097       27.6799359989        2.8817697547
  C        35.7651163234       27.6929493780        1.4605609843
  C        36.4719329640       28.6948124123        0.7234182105
  C        25.6790603754        8.6266041867        0.7494528704
  C        25.6820278112        8.6360151052        3.5615695239
  C        38.3293904371       31.9625412586       10.1557400578
  C        37.6092466483       30.8877503757       10.8970431338
  C        36.6805432241       31.1937620686       11.9033060644
  C        36.0734800797       30.1730831293       12.6323814115
  C        36.3813172444       28.8216790944       12.3780400752
  C        37.2871809561       28.5255101217       11.3413723157
  C        37.8963112856       29.5426602602       10.6137683142
  C        35.7773322589       27.7205186181       13.1620235102
  C        35.7896196841       27.7135324194       14.5838420995
  C        36.4830729110       28.7050066439       15.3467001967
  C        46.1353963829       26.6207554486       15.2815723212
  C        46.0880272690       26.5802224806       12.4736790655
  C        22.4601402925        3.2561478550       10.2574093112
  C        23.1517369911        4.3661412377       10.9798440958
  C        24.1525858454        4.0829149521       11.9227566088
  C        24.7775054887        5.1152433492       12.6180969105
  C        24.4217271014        6.4601981592       12.3929735751
  C        23.4442915349        6.7366506209       11.4183452042
  C        22.8145445913        5.7046260271       10.7236441432
  C        25.0491550291        7.5599057626       13.1673246489
  C        25.0381135099        7.5547996718       14.5899112711
  C        24.3424158244        6.5585169203       15.3452129222
  C        26.6200647614       17.8607120163        5.7797138783
  C        25.3122018511       17.9114055546        5.0578242980
  C        25.0496897476       18.9131233509        4.1097209890
  C        23.8366951408       18.9348636139        3.4240012166
  C        22.8483955008       17.9589562201        3.6650891337
  C        23.1059976979       16.9808236708        4.6443817325
  C        24.3213016169       16.9531142311        5.3269816373
  C        21.5756326573       17.9461132061        2.8998046737
  C        21.5766133362       17.9279657566        1.4771004811
  C        22.7829111395       17.8084416189        0.7173049312
  C        34.4423890025       17.1915036318        5.9204888918
  C        35.7366821347       17.1420457050        5.1791101412
  C        35.9388903887       16.1801013969        4.1770853956
  C        37.1176376679       16.1734205113        3.4365645133
  C        38.1264032800       17.1254309353        3.6816415341
  C        37.9276101234       18.0656414834        4.7103297004
  C        36.7451905109       18.0795732851        5.4460919547
  C        39.3802098545       17.1394639443        2.8956652676
  C        39.3766841776       17.1637075728        1.4744893112
  C        38.1703901661       17.2921098546        0.7165568799
  C        20.3302820164       17.9442350478        0.7678199813
  C        20.3505957633       17.9458114349        3.5814620899
  C        34.4779709644       17.2481668299       10.1780775853
  C        35.7798497660       17.1800989853       10.9042957394
  C        35.9933327031       16.2021106221       11.8868702556
  C        37.1785107223       16.1889173187       12.6166400633
  C        38.1779640439       17.1529201492       12.3822081580
  C        37.9706422836       18.1063998861       11.3682696006
  C        36.7830201395       18.1248999448       10.6419329295
  C        39.4241577642       17.1737626707       13.1780009970
  C        39.3993451970       17.1825106304       14.5987829175
  C        38.1811185128       17.2996772279       15.3397648664
  C        35.1605815811       26.6338503602       15.2879087071
  C        35.1879857031       26.6494374843       12.4789795391
  C        26.5708337935       17.8287328715       10.3221711068
  C        25.2555297135       17.8732585124       11.0289118169
  C        24.9937353073       18.8793952887       11.9711796119
  C        23.7766524354       18.9073416543       12.6462528113
  C        22.7921336570       17.9288968165       12.4027281607
  C        23.0484787376       16.9473232722       11.4282753814
  C        24.2663986341       16.9174693259       10.7512993271
  C        21.5288702540       17.9129656195       13.1764213952
  C        21.5524578614       17.9087342420       14.5981357381
  C        22.7709374268       17.7985184848       15.3408295192
  C        14.0470668350       17.8293219677       10.2887282686
  C        15.3513998444       17.8876087308       11.0136678812
  C        15.6073627914       18.8917015959       11.9606309118
  C        16.8162034224       18.9138360771       12.6536515865
  C        17.8036143121       17.9347537514       12.4221665189
  C        17.5524601600       16.9550598587       11.4428713392
  C        16.3430736227       16.9283131982       10.7513225753
  C        19.0724970125       17.9193625566       13.1915539376
  C        19.0708664904       17.9195675601       14.6140610739
  C        17.8637436522       17.8209060082       15.3750920857
  C        46.8068842615       17.2206477741       10.1598092215
  C        45.5191899674       17.1657758188       10.9085365463
  C        45.3121751171       16.1937107297       11.8991755034
  C        44.1321701363       16.1846202789       12.6379151752
  C        43.1307918576       17.1477426132       12.4068281008
  C        43.3353007284       18.0996260890       11.3900136553
  C        44.5159147896       18.1127988973       10.6526564904
  C        41.8782650783       17.1665412174       13.1945794131
  C        41.8829727646       17.1661913211       14.6160685606
  C        43.0914211834       17.2578633663       15.3758928518
  C        20.3175058518       17.9335146361       15.3226753751
  C        20.2968777512       17.8987029380       12.5097553195
  C        46.7862819560       17.2308125228        5.8906308804
  C        45.4824352175       17.1257801393        5.1774410895
  C        45.2644512460       16.1324569837        4.2110229948
  C        44.0763593733       16.1099326830        3.4850678026
  C        43.0780052808       17.0774114517        3.7096801611
  C        43.2854989365       18.0388884540        4.7160224600
  C        44.4748459686       18.0682107324        5.4365358553
  C        41.8334389153       17.1069771870        2.9116809946
  C        41.8603224750       17.1335940998        1.4912876414
  C        43.0807169840       17.2400792984        0.7524607848
  C        46.1531785676       26.6371952533        0.7263315857
  C        46.1626185139       26.6561944239        3.5359592608
  C        14.0456162036       17.8322523372        5.7089226720
  C        15.3662835297       17.9082891597        5.0187224364
  C        15.6380881061       18.9246818812        4.0906699629
  C        16.8667991232       18.9639951258        3.4356108083
  C        17.8513758405       17.9861448369        3.6827589304
  C        17.5863706649       16.9987771227        4.6491730922
  C        16.3596814335       16.9589174954        5.3078423336
  C        19.1185321804       17.9636959551        2.9138414708
  C        19.0948888583       17.9416362548        1.4923029736
  C        17.8754079868       17.8308356591        0.7513001606
  C        28.8108061490       14.0925073822       10.3909241935
  C        28.1937948554       12.9200396490       11.0780918342
  C        28.9144739624       12.1761987600       12.0239371389
  C        28.3113677718       11.1036382186       12.6761735679
  C        26.9737821023       10.7508257347       12.4055740437
  C        26.2749146951       11.4745613846       11.4229764801
  C        26.8756181965       12.5477452900       10.7698115545
  C        26.3014488569        9.6725026570       13.1660447679
  C        26.2860569065        9.6996722336       14.5870015026
  C        26.7901954734       10.8120157918       15.3332105852
  C        32.1834007361       21.2402153092       10.1362085268
  C        32.7844980506       22.4010728123       10.8602990854
  C        32.0380268399       23.0783763797       11.8366882430
  C        32.6115565291       24.1154198171       12.5663339249
  C        33.9465416129       24.5026190541       12.3396160824
  C        34.6759368009       23.8425009753       11.3331149443
  C        34.1047750214       22.7998268514       10.6056318232
  C        34.5764343255       25.5780656265       13.1387856306
  C        34.5703421060       25.5495058943       14.5600583879
  C        34.0635992180       24.4335214033       15.2983886874
  C        25.6744997046        8.6223208266       15.3048723076
  C        25.6661968552        8.6215234681       12.4918296204
  C        32.1034098094       21.2260694091        5.8793643658
  C        32.6960236759       22.3783564355        5.1354986180
  C        31.9629486957       23.0363288634        4.1354944716
  C        32.5454819350       24.0645237265        3.3973205312
  C        33.8744234106       24.4646759130        3.6417172025
  C        34.5893365115       23.8196449986        4.6687442177
  C        34.0117582347       22.7859684691        5.4018355060
  C        34.5166562640       25.5453425689        2.8584809616
  C        34.5382211776       25.5335014517        1.4370740930
  C        34.0472341855       24.4269530795        0.6749919006
  C        40.6237016406       17.1410224136        0.7669537345
  C        40.6026538556       17.1279034980        3.5762301812
  C        28.7347467663       14.0633245315        5.8202902731
  C        28.1232890084       12.9196817378        5.0811258651
  C        28.8606425449       12.2125258667        4.1189642374
  C        28.2752831528       11.1605014311        3.4185644656
  C        26.9376702152       10.7872246723        3.6579085023
  C        26.2174801479       11.4802967307        4.6487995416
  C        26.8002555435       12.5346184608        5.3489840699
  C        26.2936558937        9.6985562826        2.8845044616
  C        26.2841913668        9.7128741747        1.4629011566
  C        26.7876644042       10.8194868282        0.7093229350
  C        18.1354514029        3.1811546971       10.3173177429
  C        17.4062738276        4.2783119866       11.0159516238
  C        16.3904282463        4.0000019183       11.9433602110
  C        15.7426777368        5.0400191515       12.6067409226
  C        16.0947480366        6.3837313984       12.3671550639
  C        17.0842663480        6.6532026345       11.4035095114
  C        17.7333850672        5.6158265718       10.7385540593
  C        15.4703892942        7.4914220608       13.1301593450
  C        15.4855212747        7.4905951829       14.5518674667
  C        16.1870698679        6.4969705350       15.3050346401
  C        42.9459013104       31.8596015437       10.0730065101
  C        43.6463524503       30.7719430980       10.8168877876
  C        44.5916639743       31.0932786926       11.8031687370
  C        45.1974020240       30.0877307172       12.5508099162
  C        44.8712645223       28.7346326883       12.3357065177
  C        43.9457577506       28.4202844086       11.3221935073
  C        43.3369205724       29.4254225215       10.5741796493
  C        45.4887293727       27.6553113884       13.1389366354
  C        45.4927558214       27.6809077840       14.5606307909
  C        44.8056997943       28.6889702715       15.3072676605
  C        14.8565329801        8.5630577620       15.2642440172
  C        14.8752132343        8.5632504679       12.4515659481
  C        42.9465697965       31.9616869842        5.8089826622
  C        43.6919407157       30.8855808704        5.0956526574
  C        44.6561835964       31.1915099651        4.1230077670
  C        45.2777268319       30.1719283956        3.4052910706
  C        44.9543138449       28.8215719848        3.6432353305
  C        44.0213540374       28.5238986573        4.6545129582
  C        43.3930821433       29.5406539054        5.3666843238
  C        45.5632140182       27.7241550658        2.8579327257
  C        45.5333016196       27.7173965318        1.4366382495
  C        44.8269932970       28.7076241530        0.6836642985
  C        35.1460908759       26.6246853968        0.7326914104
  C        35.1237131864       26.6055356900        3.5422714217
  C        18.1485762172        3.2471190306        5.7064649049
  C        17.4300901591        4.3438554830        4.9971557400
  C        16.4147720720        4.0526029525        4.0736858177
  C        15.7664579807        5.0832528023        3.3983650220
  C        16.1211487748        6.4284872315        3.6211036463
  C        17.1127089292        6.7118385203        4.5781863133
  C        17.7603970627        5.6829172254        5.2579050194
  C        15.4906468524        7.5241682410        2.8486732657
  C        15.4964674257        7.5074510602        1.4275474764
  C        16.1932657784        6.5057757302        0.6808480640
  H        10.6723833174       12.4655178088        3.9049711799
  H        11.6946128839       10.5506715965        2.6630971672
  H        15.3921222774       11.1692925332        4.7715556002
  H        14.3516886880       13.0720887370        6.0167255978
  H        13.3762063746       11.6311742577        1.2013685938
  H        50.3229154240       22.7485125147        3.9869070961
  H        49.3197609087       24.6229752353        2.6808552528
  H        45.6423374103       24.1613236105        4.8638289736
  H        46.6633236982       22.2903201142        6.1720944821
  H        47.6297126462       23.5758621066        1.2463062708
  H        14.8723678279        8.5884863695        4.6085858482
  H        50.2871358723       22.7026279195       12.0604676208
  H        49.2691449858       24.5755027693       13.3605357430
  H        45.6105761231       24.1092369963       11.1461165265
  H        46.6527818365       22.2538520734        9.8318351057
  H        47.6076304677       23.5517812663       14.7969151216
  H        40.6622181645       17.1505753288       11.4264354729
  H        48.6871083540       14.0949447259        7.8000137549
  H        10.6812762061       12.4662550813       12.0928211567
  H        11.6896056501       10.5242988645       13.2964884746
  H        15.3942155125       11.1600452590       11.2066339877
  H        14.3656579327       13.0884422031        9.9914246808
  H        13.3759033980       11.6221747057       14.7531295679
  H        47.9302346498       14.2183250487        9.7109562832
  H        47.7801500469       14.3737877762        6.4952466494
  H        49.0845163787       18.5526571410       10.8676720214
  H        10.4162271490       14.1342447434        7.9987347699
  H        24.4769123229        3.0339215616        3.9091849061
  H        25.6088386194        4.8978801425        2.6815602253
  H        23.2357733599        7.7560711303        4.8489637339
  H        22.1217536554        5.8827208630        6.0776479969
  H        23.7907389039        5.8016653740        1.2619573824
  H        36.3801206771       32.1854706126        3.9627599866
  H        35.2592516667       30.3593726722        2.6815260115
  H        37.5200115710       27.4384287678        4.8861952748
  H        38.6213365910       29.2774843339        6.1754261538
  H        37.0361996831       29.4450340448        1.2696972426
  H        25.7177949889        8.6178892008        4.6493334572
  H        36.4556718646       32.2373457501       12.1116545777
  H        35.3478809201       30.4153086775       13.4057247097
  H        37.5362458151       27.4860107420       11.1385495350
  H        38.6187115703       29.3198445448        9.8323692850
  H        37.0568312767       29.4628090014       14.8209541519
  H        46.1096516608       26.5876845250       11.3856472034
  H        44.6684222055       35.1163161530        7.8139097016
  H        24.4314166075        3.0453653465       12.0923092569
  H        25.5571200526        4.8890144768       13.3423777106
  H        23.1583624652        7.7704848719       11.2355157133
  H        22.0438147626        5.9150121263        9.9857704273
  H        23.7716706262        5.8029945832       14.8130946153
  H        44.9543521170       34.3908576009        9.6954969847
  H        44.9022621513       34.2070082661        6.4906100516
  H        40.6665478495       33.2094305136       10.8532817988
  H        23.1501262814        1.9583229776        8.0051467651
  H        25.8064672842       19.6720863592        3.9252419708
  H        23.6396555298       19.7174172764        2.6943491092
  H        22.3546851932       16.2184261662        4.8401082301
  H        24.5306497174       16.1838614332        6.0666950359
  H        23.7242060512       17.6921397504        1.2466249566
  H        35.1553207022       15.4486876514        3.9916391851
  H        37.2748593141       15.4207833243        2.6669711466
  H        38.6998864366       18.8073477868        4.9036407461
  H        36.5735549660       18.8203004434        6.2237376862
  H        37.2311242524       17.4141161235        1.2482992273
  H        20.3567013110       17.9833001630        4.6694212641
  H        35.2113715047       15.4698515673       12.0739393678
  H        37.3444523738       15.4273571983       13.3754765264
  H        38.7370048606       18.8563609331       11.1835257763
  H        36.5995500525       18.8778505117        9.8790551706
  H        37.2500417592       17.4260393014       14.7948427277
  H        35.1580651949       26.6763215522       11.3913787533
  H        28.4991017807       21.0901091879        7.8830779619
  H        25.7573139455       19.6316113679       12.1563031782
  H        23.5734962161       19.6922191287       13.3716294005
  H        22.2966709973       16.1848790880       11.2347815979
  H        24.4803074344       16.1480653948       10.0132288314
  H        23.7030119457       17.6747531231       14.7976067796
  H        28.9852411213       21.7317973432        9.7532700597
  H        29.1915810388       21.7194036232        6.5604526014
  H        32.1135316722       18.5856719952       10.9076274130
  H        27.3985197138       19.0694102295        8.0714885416
  H        14.8484789139       19.6504398851       12.1382017614
  H        17.0108341620       19.6987928688       13.3813143078
  H        18.3043214452       16.1913174079       11.2548024203
  H        16.1379763842       16.1585600327       10.0111218491
  H        16.9214722679       17.7039086398       14.8477244424
  H        46.0927118772       15.4591078516       12.0828188442
  H        43.9706318259       15.4231843243       13.3977544078
  H        42.5695210169       18.8508771460       11.2084218784
  H        44.6916785878       18.8616615855        9.8840132200
  H        44.0334758872       17.3735084206       14.8475444639
  H        20.2911912343       17.9254483350       11.4215392413
  H        46.0419030991       15.3937657723        4.0298625592
  H        43.9092792025       15.3403631034        2.7345892244
  H        42.5184655249       18.7892953233        4.8956409256
  H        44.6582426920       18.8300453698        6.1901531006
  H        44.0145776098       17.3409615837        1.2978412321
  H        46.1997488364       26.6828329385        4.6233918442
  H        52.7412919295       21.0626456275        8.1946992083
  H        14.8765586112       19.6775367176        3.8995483130
  H        17.0768744402       19.7551447318        2.7190537087
  H        18.3380708540       16.2375674997        4.8476832665
  H        16.1397916925       16.1837473766        6.0378770707
  H        16.9419132514       17.7213838646        1.2950401290
  H        52.3226461002       21.6733941231        6.2942680656
  H        52.0134366129       21.7022178767        9.4956358698
  H        49.0679697907       18.6076716540        5.2039488747
  H        13.2478210182       19.0160562413        7.9774359316
  H        29.9453561311       12.4532148678       12.2331069838
  H        28.8714654173       10.5259214341       13.4083063214
  H        25.2413681507       11.2118254289       11.2069450969
  H        26.3337926865       13.1284525269       10.0273498895
  H        27.1543329546       11.6805301771       14.7927570425
  H        31.0120479389       22.7660186649       12.0168443527
  H        32.0275838090       24.6422014044       13.3179727539
  H        35.7092557186       24.1322613880       11.1533847679
  H        34.6723024701       22.2642596026        9.8479691051
  H        33.7111649569       23.5649934536       14.7494258130
  H        25.6987742771        8.6016259524       11.4039094049
  H        30.9381424238       22.7226138027        3.9483349619
  H        31.9701445910       24.5796856150        2.6309003820
  H        35.6175731945       24.1178283981        4.8630743331
  H        34.5688580413       22.2655081819        6.1774884575
  H        33.6837171834       23.5524977414        1.2068856081
  H        40.5948500520       17.0807185836        4.6635001335
  H        32.5182036081       14.1450811441        8.2505831513
  H        29.8954872503       12.4952761611        3.9395411952
  H        28.8540350860       10.6091035405        2.6806919826
  H        25.1826212673       11.2039851412        4.8402447216
  H        26.2411712699       13.0862725812        6.1011075529
  H        27.1489325638       11.6938597271        1.2428737037
  H        33.2969907619       14.1896219009        6.4383093665
  H        33.4095396147       14.4042554341        9.6053306429
  H        32.1684237596       18.5414257145        5.1379435045
  H        30.2256564471       14.1887180033        8.0777725124
  H        16.1182224820        2.9635253532       12.1296727660
  H        14.9531085133        4.8207204293       13.3222933314
  H        17.3668661461        7.6860561094       11.2105092863
  H        18.5155439824        5.8185029196       10.0108486455
  H        16.7537511055        5.7397122545       14.7715531644
  H        44.8278337715       32.1403693955       11.9774763462
  H        45.9371686096       30.3415082195       13.3068472691
  H        43.6834677528       27.3781684006       11.1517380330
  H        42.6006875024       29.1900795903        9.8091531961
  H        44.2304804740       29.4368399827       14.7689613875
  H        14.8516743012        8.5466482895       11.3633406872
  H        44.8995107703       32.2342005283        3.9313239703
  H        46.0243955863       30.4131942868        2.6518269875
  H        43.7648971002       27.4841239976        4.8465102020
  H        42.6470719029       29.3178559493        6.1256040198
  H        44.2686023580       29.4706077203        1.2182288553
  H        35.0776867802       26.6201704011        4.6295696863
  H        36.6051764238       35.1340841926        8.1806252198
  H        16.1436016685        3.0130471248        3.9040115487
  H        14.9740148697        4.8564844152        2.6883935794
  H        17.3963056389        7.7472915866        4.7550210373
  H        18.5434069220        5.8934023626        5.9825122626
  H        16.7647768528        5.7555903102        1.2192791336
  H        36.2783645193       34.4828053587        6.2729222843
  H        36.3806773690       34.2093074172        9.4996213577
  H        40.5810505199       33.2030638287        5.1532399241
  H        17.4706813738        1.9477223679        7.9741695822
  H        29.0600543076       19.4231030361       12.4488958127
  H        28.9591599054       19.0061951806        3.6393981181
  H        30.7142212522       15.3883517531        3.8351588792
  H        31.3878857628       15.6153774441       12.5462648762
  H        28.0467128037       18.1818880743       14.6611809100
  H        29.6892492386       15.2713563775       14.6770569406
  H        31.9211132819       19.0556188183        1.1951004776
  H        32.7628664403       16.7472660948        1.8673210838
  H        32.2467357501       18.6018431185       14.5554151153
  H        18.8536078038        0.8690933331       12.3351849161
  H        40.5279555884       35.2289516535        3.9519681077
  H        42.3248389425       34.4196699199        3.5899423547
  H        22.0875829771        0.6920562217       12.3517531683
  H        11.5968545621       18.7127504598       12.3825681477
  H        52.2651031843       18.4312411286        3.6773183753
  H        49.2552190181       16.4768846711        3.5845212438
  H        10.1495950786       15.7982663673       12.2930842999
  H        50.8502698449       17.6924824684        3.9541639718
  H        10.0458679705       17.3945086875       12.0519427285
  H        20.2150184000        0.0023073527       12.0419047123
  H        39.1837041739       36.1245664866        3.6866082030
 Ni        30.8139800953       17.6499991861        2.9160373270
 Ni        31.1906059589       16.6024309213       -0.0001827504
 Ni        29.9317654821       19.1306459314       -0.2512269185
 Ni        30.1850168070       17.5231606350       13.0828304076
  O        10.6500272327       14.3650807389        5.4858276714
  O        12.6132148438       14.6574990459        6.5839284680
  O        49.1481594371       16.8458331025        7.9897230638
  O        50.3502934356       20.9359519893        5.6480436200
  O        48.3485699701       20.5933952449        6.6658980593
  O        11.0519297924       17.0537100432        6.5007595661
  O        50.3210295673       20.8817114887       10.4069080142
  O        48.3467398569       20.5868394477        9.3271908504
  O        49.5438027273       18.2484092744       10.0682585632
  O        12.3591887404       18.6246225160        7.9997107773
  O        48.6932944201       14.1485377777        6.7513109619
  O         8.2098956949       14.2103912499        9.3225540280
  O        10.7353976438       14.5067499094       10.6643412719
  O        12.5718432544       14.5827992903        9.3284971580
  O        22.8443677767        2.0432073391        5.4872483057
  O        21.6048205504        3.5918081059        6.5902615865
  O        42.0584131350       34.1375857109        7.9790215248
  O        37.9817481518       33.1377372315        5.5723735602
  O        39.2182193548       31.5761505062        6.6667710071
  O        20.3084418710        1.0396010818        6.5020978739
  O        38.0247002235       33.1857417557       10.4152771237
  O        39.2195231591       31.5840656357        9.3260065175
  O        40.6523130605       33.7694426457       10.0602097320
  O        18.2552272507        1.3763630428        7.9967854911
  O        44.6222209956       35.1005757751        6.7587616793
  O        24.2054333682        0.0000416304        9.3207918857
  O        22.7528507536        2.0581782803       10.5839090152
  O        21.6240182914        3.5956455635        9.3418594803
  O        27.4995507393       18.7516159342        5.4894950085
  O        26.7639075065       16.9369581172        6.6509294680
  O        30.6705361761       19.4069658214        8.0030502579
  O        33.5892842717       16.2762449919        5.6651450000
  O        34.2765942351       18.1690234609        6.7317094169
  O        29.5790948518       17.0595450051        6.5790328717
  O        33.6223166668       16.3295474173       10.4080291419
  O        34.3055428865       18.2489943285        9.4033375563
  O        31.6560536743       18.3183442587       10.0935914439
  O        30.3245868298       15.1548966139        8.0815419583
  O        28.5522768051       21.0344207326        6.8313912803
  O        28.5109034172       20.9617432824        9.3970563811
  O        27.4559230535       18.6791903230       10.6554102007
  O        26.6941868996       16.9281798564        9.4107365431
  O        13.1485830810       18.6929912649       10.5873618320
  O        13.9195336542       16.9163220931        9.4052381285
  O        50.5965116601       19.3503268870        8.0205283377
  O        47.6833437871       16.3271041683       10.4173195190
  O        46.9525471501       18.1761680947        9.3239436820
  O        11.0699253854       17.0154040017        9.4896352051
  O        47.6764079686       16.3354541016        5.6531711866
  O        46.9282899519       18.2358115540        6.6651886193
  O        49.5689673048       18.3177208601        5.9822733845
  O        10.3187150863       15.1000795892        7.9970948867
  O        52.6707859568       21.0278840456        9.2418200810
  O        12.1468491378       20.8912304253        6.6732572907
  O        13.1077419908       18.6137421419        5.3257392616
  O        13.9573023126       16.9871594302        6.6652958548
  O        29.9935685718       14.4429970225       10.7302207281
  O        28.0896937458       14.6541034189        9.4935347169
  O        32.1406847644       16.8578586339        8.0660139572
  O        30.9695082815       20.9579751588       10.3987100614
  O        32.9505490656       20.5983086765        9.3325352251
  O        29.5681955889       17.0746853962        9.5753187243
  O        30.8749641706       20.9452508390        5.6567344174
  O        32.8799741843       20.5855287687        6.6619499169
  O        31.6823674480       18.2454081198        5.9245209288
  O        28.2865343572       18.6767961955        8.0644539349
  O        32.4941162626       14.2128823701        9.3284509968
  O        32.4063206385       14.2103870379        6.8261382527
  O        29.9117857259       14.4338029662        5.4884786331
  O        28.0376686713       14.5877849176        6.7537981929
  O        17.8892567013        1.9666473378       10.6628383591
  O        18.9561600124        3.5271470041        9.4080003099
  O        39.1686564830       34.1389163602        7.9972115457
  O        43.2802564219       33.0590027014       10.3317004390
  O        42.0345572554       31.5064643912        9.2416391848
  O        20.3177165615        1.0368064848        9.4801723790
  O        43.2760953027       33.1826340101        5.5748951337
  O        42.0052943488       31.5841393402        6.5829647640
  O        40.5789832740       33.7750345065        5.9358515636
  O        22.3673645999        1.3845828798        7.9979608278
  O        36.6727634474       35.0998203582        9.2332756616
  O        16.4455931845        0.0642851028        6.6682958729
  O        17.9364881307        2.0433600939        5.3263812278
  O        18.9189322054        3.5931592700        6.6658931443
  O        29.8143386113       18.8233409236        4.0699764648
  O        29.7893449751       19.0436586678       11.9190120427
  O        31.3044443591       16.1258324419        4.0817540201
  O        31.3846399988       16.4165549489       11.9878423087
  O        32.1129187346       17.3670426197        1.4899872175
  O        30.4075573488       15.8943332876       14.4809782779
  O        31.3871338493       18.1842377072       14.7284879434
  O        31.1706513582       19.7160922119        1.1580809483
  O        28.8553555393       18.6081468504       14.3316478530
  O        39.4567164234       35.2438123712        4.0019666491
  O        19.1415038815        0.0045759685       11.9905241712
  O        41.9694856878       35.1727003456        4.0871437988
  O        21.6912096202       -0.0693235702       11.8959602149
  O        51.3652256459       18.6143178584        4.0053773063
  O        10.7510910651       18.7471498477       11.9049513685
  O        50.0796806438       16.4127852537        4.0917216620
  O         9.5239326368       16.4831669998       11.9912204706
 Zr         9.2976189170       16.0526547660        6.1825297807
 Zr        49.8368001875       16.0065979147        9.7462785331
 Zr        22.0735838332        0.0304403162        6.1888965486
 Zr        42.4612975635       35.1540790774        9.8011152250
 Zr        29.6086503416       19.0759789067        6.2547773490
 Zr        29.5772701203       19.1958941342        9.8165644640
 Zr        11.0387086207       19.0517223861        9.8278497574
 Zr        11.0445784100       19.1546471927        6.2508944787
 Zr        31.3581841420       16.1019323112        9.8606232407
 Zr        31.3992025968       16.0019066702        6.2736609703
 Zr        18.6014516429       -0.0005686867        9.7633222210
 Zr        18.5067461938       -0.0069810204        6.2138596333
 Zr        12.3029561214       16.3236245667        7.9904116490
 Zr        48.6175590112       18.8331917836        8.0102335985
 Zr        20.3151431044        2.4740267552        7.9905309035
 Zr        40.6442941902       32.6879475047        7.9781973837
 Zr        28.3477356141       16.3423829231        8.0883596602
 Zr        32.6340234324       18.8358395817        8.0386929425
  H        31.5172697767       20.6228571735        1.1160072098
  H        28.7962167340       19.6371179234        0.4838221031
  H        30.8356712330       15.4655941768        0.8153180648
