     570
 i =      181, E =     -4745.5447802216
  C        11.8585669742       14.0534886945        5.7416534792
  C        12.4561165264       12.8904547020        5.0233728217
  C        11.7044963397       12.1716951232        4.0815507654
  C        12.2808972598       11.1095359380        3.3891291262
  C        13.6214095593       10.7396387553        3.6170069103
  C        14.3544867942       11.4430079678        4.5906863248
  C        13.7815568047       12.5079177451        5.2822657483
  C        14.2610491601        9.6490628267        2.8435913733
  C        14.2564492697        9.6570073040        1.4218882519
  C        13.7430894734       10.7590384106        0.6679761590
  C        49.1266501069       21.2333284569        5.8798807406
  C        48.5498510226       22.4012377574        5.1527145679
  C        49.2999889466       23.0687388210        4.1719374115
  C        48.7330557854       24.1078338495        3.4386845320
  C        47.4024117058       24.5092121349        3.6670862697
  C        46.6712674229       23.8600507565        4.6802521179
  C        47.2337290243       22.8151731668        5.4096483653
  C        46.7722477338       25.5869664065        2.8698264350
  C        46.7612728840       25.5573899923        1.4480665126
  C        47.2610816893       24.4422164399        0.7046119083
  C        14.8605651153        8.5707674894        0.7086237054
  C        14.8919212084        8.5971595260        3.5202257280
  C        49.1130230167       21.2033899488       10.1453715073
  C        48.5275984265       22.3646676315       10.8726876716
  C        49.2670188676       23.0257547350       11.8651976421
  C        48.6906740468       24.0602832273       12.5966850365
  C        47.3600790577       24.4566297933       12.3588170574
  C        46.6393660935       23.8112127176       11.3358515038
  C        47.2129332908       22.7752997364       10.6040721554
  C        46.7217333593       25.5317206871       13.1497804218
  C        46.7334993675       25.5281639185       14.5714782173
  C        47.2488106588       24.4288888974       15.3278513453
  C        40.6280306334       17.0923242404       15.3165179906
  C        40.6461122084       17.1273303908       12.5077353945
  C        11.8828328490       14.0865083012       10.2853861067
  C        12.4721909497       12.9105914274       10.9895817843
  C        11.7146984657       12.1775072100       11.9157800249
  C        12.2812844204       11.0950650980       12.5842452565
  C        13.6200759194       10.7213044952       12.3523823867
  C        14.3579986794       11.4366978122       11.3914164418
  C        13.7925561871       12.5178266425       10.7186720846
  C        14.2537607439        9.6246253951       13.1228148855
  C        14.2525835496        9.6446323416       14.5446548691
  C        13.7425362377       10.7535056634       15.2917220229
  C        22.5110966294        3.2455368199        5.7533037378
  C        23.2216222899        4.3542537679        5.0549384555
  C        24.2219851719        4.0817014950        4.1101984494
  C        24.8429794462        5.1262602548        3.4300087984
  C        24.4788850115        6.4656413869        3.6737601447
  C        23.5071202563        6.7297296066        4.6560392510
  C        22.8819845807        5.6872224909        5.3349159463
  C        25.0768500660        7.5767639787        2.8986945256
  C        25.0551514458        7.5660320962        1.4770308198
  C        24.3613673771        6.5609384630        0.7307986740
  C        38.3049840621       31.9317896147        5.8490224450
  C        37.5797077250       30.8422421275        5.1371747922
  C        36.6139277610       31.1453306702        4.1657501902
  C        36.0003994570       30.1243500439        3.4460349417
  C        36.3397809189       28.7770809235        3.6768204144
  C        37.2775136388       28.4810967358        4.6835052676
  C        37.8942566958       29.5007519719        5.4026928203
  C        35.7370575417       27.6861598059        2.8812018176
  C        35.7526900965       27.7076352733        1.4602000181
  C        36.4525029415       28.7128550429        0.7210043876
  C        25.6750027758        8.6374773068        0.7567562055
  C        25.6614228122        8.6588467384        3.5694479807
  C        38.3282694474       31.9631888335       10.1553143957
  C        37.6031837521       30.8917228493       10.8962201094
  C        36.6694521131       31.2042301138       11.8959668458
  C        36.0544382985       30.1883268676       12.6247134245
  C        36.3595029873       28.8351244927       12.3770840769
  C        37.2712079629       28.5323325054       11.3474235840
  C        37.8881207727       29.5448938139       10.6196868754
  C        35.7479066250       27.7391246878       13.1624027251
  C        35.7586474589       27.7344779510       14.5840841726
  C        36.4553539165       28.7254591961       15.3444410255
  C        46.1356604563       26.6209157657       15.2815744112
  C        46.0878683740       26.5800838891       12.4736748860
  C        22.4614829456        3.2568328667       10.2590312081
  C        23.1552696179        4.3658994083       10.9828682319
  C        24.1554051447        4.0807450086       11.9262697946
  C        24.7825067081        5.1112386196       12.6230820291
  C        24.4303718814        6.4575314043       12.3994414251
  C        23.4535108266        6.7358140313       11.4243962377
  C        22.8216191813        5.7056572896       10.7283108535
  C        25.0590490642        7.5573834531       13.1742809363
  C        25.0468896071        7.5550466217       14.5973286719
  C        24.3547286842        6.5573543033       15.3539169286
  C        26.6285605198       17.8567146991        5.7432674793
  C        25.3259787130       17.9081388092        5.0133464051
  C        25.0488465519       18.9193692040        4.0804125302
  C        23.8290573953       18.9429563594        3.4065888937
  C        22.8496342541       17.9576765441        3.6449636574
  C        23.1229842761       16.9669449550        4.6062285914
  C        24.3435864678       16.9396689331        5.2780396127
  C        21.5722593286       17.9451152739        2.8887147637
  C        21.5725917443       17.9203821874        1.4671041560
  C        22.7784683789       17.7913589296        0.7082647066
  C        34.4908481718       17.2222546105        5.9928262865
  C        35.7742277535       17.1605965783        5.2368909489
  C        35.9524975235       16.1892956164        4.2394457823
  C        37.1170884613       16.1699698380        3.4769772750
  C        38.1352318576       17.1181161182        3.6943574054
  C        37.9592480342       18.0698695908        4.7176349605
  C        36.7907869710       18.0976775930        5.4747138865
  C        39.3808911741       17.1157727454        2.8942206419
  C        39.3724462005       17.1166504833        1.4718350092
  C        38.1640164543       17.2277645106        0.7141491930
  C        20.3262799355       17.9381594310        0.7595454566
  C        20.3492125318       17.9483141178        3.5735103298
  C        34.5075757842       17.2101216529       10.1153891246
  C        35.7991319437       17.1321950423       10.8515853408
  C        35.9946741560       16.1509232325       11.8347731310
  C        37.1673046421       16.1346796207       12.5848952832
  C        38.1733789821       17.0954145417       12.3672308745
  C        37.9833921943       18.0524535360       11.3523144365
  C        36.8071164262       18.0775407810       10.6089857132
  C        39.4147061261       17.1100848497       13.1720092677
  C        39.3900527940       17.1142719800       14.5936147942
  C        38.1722015512       17.2245480772       15.3366351995
  C        35.1275439979       26.6568218318       15.2897440748
  C        35.1567377715       26.6681139858       12.4813475143
  C        26.5704898472       17.8285134895       10.3254268455
  C        25.2553451587       17.8747140517       11.0290874793
  C        24.9974811898       18.8720577258       11.9816156214
  C        23.7782741011       18.8993120545       12.6525302452
  C        22.7897739934       17.9278794452       12.3968847281
  C        23.0432659570       16.9548883343       11.4131732406
  C        24.2623100894       16.9264304971       10.7388267246
  C        21.5260536331       17.9091027431       13.1690088693
  C        21.5489854497       17.8986311740       14.5903804967
  C        22.7670299343       17.7796119887       15.3321943591
  C        14.0455645452       17.8295258388       10.2873041841
  C        15.3503446771       17.8883082902       11.0108590114
  C        15.6072805767       18.8942163632       11.9552408252
  C        16.8165713553       18.9164367277       12.6471441428
  C        17.8018567355       17.9355883244       12.4157798247
  C        17.5499277293       16.9540439420       11.4389123765
  C        16.3400509522       16.9272742929       10.7487532549
  C        19.0702547826       17.9187754174       13.1845092827
  C        19.0677532561       17.9162348638       14.6067430692
  C        17.8604858365       17.8190830195       15.3680249465
  C        46.8044153123       17.2174689458       10.1582122675
  C        45.5147403497       17.1515610122       10.9025220263
  C        45.3115695179       16.1704433084       11.8854306403
  C        44.1301596431       16.1470553026       12.6214001240
  C        43.1221907803       17.1049757496       12.3969377006
  C        43.3225150652       18.0654286660       11.3869404660
  C        44.5045319220       18.0925954508       10.6514625297
  C        41.8697257647       17.1111655589       13.1860219697
  C        41.8750417373       17.1071347591       14.6076771392
  C        43.0845994221       17.2023609227       15.3648192406
  C        20.3140797468       17.9265792870       15.3149094133
  C        20.2941956948       17.8991630645       12.5023338332
  C        46.7856537018       17.2311992787        5.8886481633
  C        45.4840791584       17.1247319508        5.1722515910
  C        45.2669419085       16.1236251392        4.2132958156
  C        44.0800305066       16.0949262871        3.4857390328
  C        43.0811432049       17.0644296541        3.6999258181
  C        43.2888375796       18.0355451377        4.6972613306
  C        44.4767154761       18.0705482518        5.4202373743
  C        41.8351062290       17.0837548025        2.9036174808
  C        41.8574342872       17.0919756114        1.4829399103
  C        43.0763060692       17.1924938533        0.7413836797
  C        46.1534192951       26.6373639129        0.7263271423
  C        46.1624055414       26.6561198538        3.5359620665
  C        14.0447436130       17.8319526898        5.7084416297
  C        15.3654005478       17.9077858830        5.0163964047
  C        15.6360865797       18.9242272878        4.0881164915
  C        16.8640410831       18.9640187714        3.4313337706
  C        17.8492681606       17.9866305331        3.6773016168
  C        17.5853214690       16.9988000085        4.6435998038
  C        16.3592205817       16.9584481194        5.3036949713
  C        19.1160646177       17.9644027213        2.9071149387
  C        19.0915746550       17.9391382405        1.4854034101
  C        17.8718807667       17.8292922737        0.7444041758
  C        28.8118171656       14.0949302369       10.3926984693
  C        28.1956698282       12.9228494015       11.0810337150
  C        28.9131372976       12.1898627208       12.0382635660
  C        28.3116491382       11.1165914247       12.6910510135
  C        26.9790998138       10.7519241981       12.4105558081
  C        26.2840939840       11.4654253155       11.4175112684
  C        26.8827559728       12.5392584037       10.7635735713
  C        26.3075102525        9.6732382009       13.1714511615
  C        26.2870874700        9.7047242840       14.5925459028
  C        26.7825248827       10.8219571315       15.3372583297
  C        32.1788322556       21.2487794164       10.1447030575
  C        32.7703248341       22.4147326744       10.8635297520
  C        32.0144288763       23.0934075368       11.8318926323
  C        32.5792410019       24.1349768383       12.5611573057
  C        33.9148095155       24.5239715118       12.3426170992
  C        34.6534674512       23.8627717488       11.3435449255
  C        34.0911618721       22.8160199331       10.6158235647
  C        34.5394088790       25.6011463462       13.1428748011
  C        34.5291742060       25.5749865841       14.5644529712
  C        34.0113603484       24.4649265272       15.3044051100
  C        25.6771547187        8.6271999019       15.3116795605
  C        25.6757645936        8.6191497804       12.4982143445
  C        32.1149397030       21.2385395111        5.8856961288
  C        32.7063270862       22.3904624818        5.1453506976
  C        31.9506417308       23.1126363042        4.2083259374
  C        32.5349072779       24.1345666334        3.4649309997
  C        33.8895638221       24.4714630194        3.6480109517
  C        34.6310007512       23.7685592655        4.6161861512
  C        34.0513505308       22.7362163995        5.3495632736
  C        34.5257263220       25.5534814760        2.8615555897
  C        34.5186459076       25.5524695053        1.4403884692
  C        34.0029404415       24.4554440994        0.6813712510
  C        40.6186851743       17.0890658828        0.7613725067
  C        40.6061729132       17.1146681446        3.5704072685
  C        28.7152905847       14.0969827883        5.8217630551
  C        28.0925132356       12.9570023919        5.0849124192
  C        28.8250237610       12.2528039730        4.1164951214
  C        28.2412046395       11.1989455379        3.4187388204
  C        26.9065258269       10.8186520607        3.6639119670
  C        26.1892498484       11.5098330473        4.6587070497
  C        26.7719279969       12.5664681110        5.3574415763
  C        26.2690200395        9.7240262643        2.8920406732
  C        26.2686715486        9.7309709768        1.4696681530
  C        26.7710657733       10.8361808711        0.7133331569
  C        18.1354989206        3.1811658622       10.3172739570
  C        17.4062825455        4.2783709508       11.0158882838
  C        16.3905952092        4.0000451953       11.9434602864
  C        15.7429005925        5.0400520107       12.6069187253
  C        16.0947809303        6.3837671853       12.3671321801
  C        17.0841166258        6.6532447891       11.4033121905
  C        17.7332088105        5.6158835361       10.7383088790
  C        15.4704704665        7.4914668408       13.1301422145
  C        15.4858683438        7.4908094033       14.5518410292
  C        16.1876755212        6.4973596759       15.3049941276
  C        42.9461133401       31.8595466849       10.0729566965
  C        43.6465167659       30.7719343590       10.8167981794
  C        44.5918961502       31.0932690346       11.8030287441
  C        45.1975969118       30.0877174142       12.5506738346
  C        44.8713129764       28.7346206187       12.3357102222
  C        43.9456986496       28.4202697556       11.3222921273
  C        43.3369114040       29.4254119735       10.5742457609
  C        45.4888415958       27.6553321684       13.1389264741
  C        45.4930686053       27.6810759377       14.5606127245
  C        44.8060668514       28.6891867748       15.3072230320
  C        14.8567963906        8.5632348477       15.2641979124
  C        14.8750121405        8.5631149819       12.4515329541
  C        42.9465093547       31.9616012603        5.8089881746
  C        43.6917931083       30.8855466527        5.0956117446
  C        44.6559890194       31.1915123987        4.1229198952
  C        45.2775549537       30.1719461157        3.4052316454
  C        44.9542496556       28.8215605020        3.6432089575
  C        44.0212744651       28.5238664313        4.6544730829
  C        43.3929963916       29.5405955274        5.3666689499
  C        45.5632186596       27.7241940788        2.8579139114
  C        45.5335503300       27.7175813636        1.4366122277
  C        44.8273108909       28.7078376331        0.6836151798
  C        35.1238112440       26.6440547538        0.7342524786
  C        35.1462463852       26.6049098066        3.5444826191
  C        18.1487010254        3.2471906320        5.7066192094
  C        17.4302330586        4.3440104896        4.9972688790
  C        16.4151170310        4.0527857767        4.0735789809
  C        15.7668701387        5.0834433743        3.3981892546
  C        16.1214706848        6.4286759151        3.6210429036
  C        17.1127781890        6.7120041049        4.5783909261
  C        17.7603999186        5.6830674213        5.2581583690
  C        15.4909602590        7.5243624902        2.8486217371
  C        15.4969534210        7.5077622482        1.4274969371
  C        16.1939161280        6.5061937142        0.6808059101
  H        10.6724109245       12.4659450035        3.9044331334
  H        11.6946188692       10.5511639426        2.6624952518
  H        15.3914577836       11.1682650779        4.7725440871
  H        14.3508825413       13.0710272654        6.0178957554
  H        13.3758159995       11.6310460345        1.2012970898
  H        50.3227537146       22.7487879502        3.9873843307
  H        49.3195768600       24.6232379238        2.6812318151
  H        45.6416125469       24.1604732975        4.8630752063
  H        46.6625362820       22.2895866488        6.1713749551
  H        47.6293579860       23.5757467053        1.2463309241
  H        14.8721532424        8.5883552326        4.6085303912
  H        50.2872149028       22.7031821501       12.0597629881
  H        49.2691522530       24.5760279093       13.3599267747
  H        45.6097185016       24.1079242645       11.1472839203
  H        46.6518514139       22.2526324145        9.8330356320
  H        47.6073363311       23.5516686203       14.7969415801
  H        40.6517800060       17.0987788858       11.4198411976
  H        48.6869835934       14.0947862770        7.8000295030
  H        10.6812403524       12.4666369743       12.0932032210
  H        11.6894710907       10.5247300816       13.2969749985
  H        15.3934012284       11.1587314169       11.2054372006
  H        14.3647867766       13.0871003331        9.9899825281
  H        13.3754469413       11.6219983277       14.7530666419
  H        47.9300114111       14.2181763201        9.7105235089
  H        47.7798988020       14.3730388216        6.4951262767
  H        49.0829484528       18.5518386450       10.8671403115
  H        10.4155130514       14.1342953911        7.9986919921
  H        24.4906572437        3.0451332511        3.9189311793
  H        25.6190109202        4.9146279252        2.6976094838
  H        23.2184436708        7.7604963077        4.8509509630
  H        22.1094335543        5.8818332971        6.0747395617
  H        23.8019480170        5.8027280183        1.2709337775
  H        36.3690735142       32.1880020416        3.9777393565
  H        35.2498207979       30.3605886309        2.6950025910
  H        37.5466848261       27.4428884141        4.8664472620
  H        38.6437108544       29.2827690497        6.1597606212
  H        37.0204203588       29.4617828719        1.2652319580
  H        25.6916466280        8.6447035771        4.6574683706
  H        36.4468403625       32.2492637362       12.0992235351
  H        35.3250067909       30.4355752934       13.3928555148
  H        37.5186146751       27.4912992741       11.1504709219
  H        38.6146701346       29.3168867994        9.8435995772
  H        37.0265386715       29.4837883971       14.8167046016
  H        46.1091923246       26.5873077104       11.3856364729
  H        44.6684175574       35.1162482052        7.8138785882
  H        24.4324613038        3.0426253728       12.0953727515
  H        25.5615469043        4.8818745103       13.3470254298
  H        23.1694805898        7.7702392783       11.2418818502
  H        22.0517531245        5.9190091882        9.9903285620
  H        23.7893832524        5.7971427840       14.8226953967
  H        44.9542706133       34.3907364339        9.6953807086
  H        44.9018612851       34.2069336676        6.4904729679
  H        40.6664482975       33.2095004399       10.8533665156
  H        23.1505093138        1.9582883982        8.0054573362
  H        25.7934937699       19.6918998498        3.9034154919
  H        23.6183776030       19.7336298283        2.6895819224
  H        22.3788084564       16.1964062442        4.7972198115
  H        24.5649056600       16.1636673317        6.0070482251
  H        23.7183632075       17.6695853111        1.2385959368
  H        35.1575248213       15.4675877756        4.0664289633
  H        37.2528704314       15.4111617612        2.7094763762
  H        38.7382850071       18.8097630512        4.8892387375
  H        36.6377855468       18.8490094261        6.2459885798
  H        37.2231948523       17.3477116366        1.2440132070
  H        20.3570848006       17.9884704593        4.6613643177
  H        35.2070162204       15.4224353211       12.0121921429
  H        37.3166454751       15.3727777173       13.3467477223
  H        38.7544762279       18.8006714999       11.1810915739
  H        36.6375179357       18.8357943888        9.8482449574
  H        37.2375536662       17.3416092814       14.7951278977
  H        35.1311027461       26.6908840645       11.3935471527
  H        28.5058459081       21.0788951814        8.0042844324
  H        25.7661547430       19.6154087540       12.1806413434
  H        23.5772908826       19.6771690650       13.3859456492
  H        22.2886042771       16.1976491413       11.2106667740
  H        24.4742830391       16.1634298816        9.9936593728
  H        23.6981508295       17.6490343316       14.7888603393
  H        28.9897661778       21.7224964313        9.7680627949
  H        29.1630005243       21.7425204059        6.6419693993
  H        32.1589055405       18.5393659361       10.9869114710
  H        27.4025051819       19.0767694597        8.0826085733
  H        14.8486831034       19.6534906247       12.1316942780
  H        17.0130707745       19.7021199165       13.3735053527
  H        18.3010446470       16.1892198523       11.2523467937
  H        16.1325763607       16.1565354689       10.0102719128
  H        16.9180472476       17.7038180833       14.8405168460
  H        46.0966149444       15.4398902233       12.0656677099
  H        43.9729688945       15.3786217207       13.3751010475
  H        42.5518742262       18.8126484341       11.2092440612
  H        44.6753661784       18.8483219881        9.8883567904
  H        44.0256759354       17.3166223932       14.8345521859
  H        20.2879129672       17.9298958452       11.4142415936
  H        46.0439737782       15.3826903752        4.0398392567
  H        43.9136817877       15.3181364704        2.7425774849
  H        42.5220638347       18.7881125294        4.8687812278
  H        44.6585348639       18.8389142086        6.1676247118
  H        44.0110933480       17.2978503073        1.2842729136
  H        46.1992307080       26.6825727625        4.6234095617
  H        52.7408810172       21.0624823153        8.1946153462
  H        14.8740537405       19.6768410469        3.8979534265
  H        17.0726506172       19.7553327442        2.7145126672
  H        18.3371182285       16.2373819162        4.8409935463
  H        16.1402277472       16.1829002065        6.0336494197
  H        16.9381558785       17.7216635179        1.2881708888
  H        52.3214597133       21.6729919471        6.2947002994
  H        52.0124574594       21.7015078147        9.4954875533
  H        49.0669841077       18.6074835998        5.2044545059
  H        13.2470888034       19.0166934318        7.9769618991
  H        29.9406504153       12.4743835521       12.2551258322
  H        28.8699474321       10.5475480816       13.4312819285
  H        25.2544486733       11.1941171425       11.1935647714
  H        26.3430286500       13.1114307766       10.0130204701
  H        27.1463145121       11.6904617601       14.7965009436
  H        30.9884485438       22.7781917179       12.0069615504
  H        31.9890305478       24.6618842937       13.3077002072
  H        35.6876802362       24.1538837235       11.1716211799
  H        34.6667201496       22.2789296852        9.8654513052
  H        33.6457992961       23.5991050314       14.7596628862
  H        25.7104470160        8.5971452363       11.4103831714
  H        30.9008526892       22.8657081021        4.0706646758
  H        31.9437075608       24.6916740954        2.7413545681
  H        35.6795327679       24.0197774737        4.7622973786
  H        34.6284558749       22.1684339165        6.0757948231
  H        33.6294524474       23.5831375977        1.2106540915
  H        40.6012566141       17.0838739257        4.6582402701
  H        32.5042818822       14.1330216019        8.2627815597
  H        29.8565195233       12.5399829024        3.9284247948
  H        28.8195680663       10.6512136457        2.6778979582
  H        25.1565830170       11.2295957673        4.8563788609
  H        26.2135441822       13.1135869381        6.1134754604
  H        27.1248264025       11.7157851153        1.2433597284
  H        33.3083160909       14.2362022576        6.4658672505
  H        33.4060464101       14.4148128916        9.5939188815
  H        32.1076604008       18.5294382191        5.0552626907
  H        30.2300487104       14.1943147400        8.0697556934
  H        16.1185592693        2.9635474268       12.1299193979
  H        14.9534805286        4.8207522755       13.3226346976
  H        17.3665350161        7.6861141820       11.2101549433
  H        18.5152640559        5.8185030326       10.0104735295
  H        16.7544117477        5.7401586505       14.7714884133
  H        44.8280908335       32.1403495706       11.9773409276
  H        45.9373621460       30.3414830682       13.3067121222
  H        43.6831759158       27.3781775300       11.1520382420
  H        42.6005203733       29.1900015293        9.8093919972
  H        44.2307766176       29.4370030735       14.7689245141
  H        14.8511604924        8.5463031412       11.3633160030
  H        44.8992294626       32.2342124400        3.9311903740
  H        46.0241833638       30.4132337911        2.6517413258
  H        43.7648242525       27.4840869539        4.8464573938
  H        42.6470475420       29.3177021369        6.1256215852
  H        44.2688346303       29.4707826396        1.2181403933
  H        35.1210016973       26.6092201478        4.6325346034
  H        36.6052834807       35.1343179036        8.1805189947
  H        16.1440677786        3.0132151696        3.9037862284
  H        14.9746140144        4.8566696877        2.6880059194
  H        17.3962464716        7.7474688402        4.7553532912
  H        18.5432210950        5.8934967311        5.9829880190
  H        16.7655664949        5.7561168449        1.2192411330
  H        36.2790201262       34.4824904543        6.2732669886
  H        36.3817516868       34.2088980418        9.4992607286
  H        40.5818606813       33.2038394485        5.1535410843
  H        17.4709221342        1.9480063760        7.9742969255
  H        28.9800060906       19.2543053480       12.5116206498
  H        29.7917158343       20.5068369930        3.9105495606
  H        31.3193706817       14.9534416269        3.9256894322
  H        31.4683963721       15.6463515992       12.5793497718
  H        28.0912181026       17.8072173074       14.5492436095
  H        29.6303444760       15.1207426949       13.9556943137
  H        28.5191366888       17.2369637275        1.4745416396
  H        31.4199230002       19.5523734063       13.9616518744
  H        18.8538558103        0.8691158488       12.3354178909
  H        40.5279842646       35.2289288715        3.9518869728
  H        42.3255076314       34.4201967358        3.5898187282
  H        22.0878810182        0.6918477383       12.3519891834
  H        11.5969785498       18.7130825652       12.3823427743
  H        52.2646619264       18.4307106445        3.6774316221
  H        49.2551706687       16.4768099691        3.5845363526
  H        10.1507977290       15.7981366432       12.2926855873
  H        50.8495541055       17.6923360758        3.9543239650
  H        10.0463046537       17.3944521076       12.0520550422
  H        20.2151637023        0.0023065281       12.0419874419
  H        39.1838936206       36.1245626559        3.6864263391
 Ni        30.3543146509       16.6945881025        2.9127160833
 Ni        30.0944042161       16.2047904655        0.0015198479
 Ni        30.1803173231       18.4552734076       -0.2505050034
 Ni        30.3146406579       17.5410082335       13.1613367305
  O        10.6499517056       14.3650823616        5.4857849269
  O        12.6132270028       14.6575216519        6.5838452463
  O        49.1479666520       16.8459858384        7.9897939614
  O        50.3501731177       20.9361167051        5.6481871671
  O        48.3485019015       20.5933532424        6.6659592807
  O        11.0513917524       17.0539169045        6.5005924492
  O        50.3209502318       20.8817668323       10.4068397988
  O        48.3467217252       20.5868110355        9.3271068696
  O        49.5439700004       18.2484915195       10.0683493849
  O        12.3588516699       18.6245277720        7.9996302692
  O        48.6932492883       14.1485307852        6.7513119781
  O         8.2098866779       14.2102793376        9.3225023293
  O        10.7353886357       14.5066925772       10.6643454953
  O        12.5718226450       14.5828082444        9.3284707261
  O        22.8447921749        2.0446094360        5.4870082237
  O        21.6048186132        3.5920365319        6.5907528113
  O        42.0585247713       34.1377732616        7.9791400456
  O        37.9820337054       33.1394608668        5.5729716654
  O        39.2189188660       31.5771029116        6.6674206725
  O        20.3086707552        1.0400848336        6.5022923978
  O        38.0250385763       33.1868419800       10.4147840103
  O        39.2190491405       31.5837513616        9.3266842659
  O        40.6524616600       33.7696389732       10.0603794887
  O        18.2553888324        1.3765447089        7.9968720096
  O        44.6222066581       35.1006110198        6.7587211256
  O        24.2054644599        0.0000437998        9.3207760554
  O        22.7532657789        2.0583401866       10.5843483298
  O        21.6249696054        3.5966907014        9.3438900632
  O        27.5488421030       18.6933543709        5.4102532635
  O        26.7324638959       16.9916923998        6.6679663096
  O        30.6743788978       19.4082040402        8.0618678597
  O        33.6593964822       16.2743205898        5.8219952100
  O        34.3047354861       18.2484665348        6.7419552923
  O        29.5734441197       17.0684255807        6.5811644873
  O        33.6695290224       16.2618995972       10.2598553322
  O        34.3118737133       18.2544260327        9.4025693060
  O        31.7109949810       18.3158493650       10.1532183343
  O        30.3253342831       15.1608455825        8.0833596874
  O        28.5531104876       21.0318818609        6.9101594320
  O        28.5128751514       20.9568009123        9.4050378272
  O        27.4571240221       18.6788728585       10.6589062248
  O        26.6943215876       16.9293520165        9.4131196065
  O        13.1480626523       18.6932196838       10.5870826603
  O        13.9189863885       16.9161116240        9.4045737882
  O        50.5958484897       19.3502567174        8.0204963437
  O        47.6838568295       16.3267002673       10.4168918079
  O        46.9515191649       18.1756736394        9.3250428190
  O        11.0696258390       17.0155077022        9.4897232774
  O        47.6764300745       16.3353966851        5.6534003610
  O        46.9277768147       18.2356617865        6.6644769746
  O        49.5688789842       18.3177583730        5.9823233578
  O        10.3185306028       15.1001853989        7.9970478270
  O        52.6707054235       21.0279294041        9.2418311121
  O        12.1468229868       20.8912172567        6.6731987683
  O        13.1075996018       18.6139516362        5.3255673322
  O        13.9570832000       16.9872075243        6.6648754205
  O        29.9930828866       14.4465711211       10.7333014139
  O        28.0903151921       14.6548770124        9.4928422098
  O        32.1024477259       16.9169304977        8.0668960693
  O        30.9677681950       20.9568085518       10.4052043635
  O        32.9489270477       20.6102434205        9.3389684174
  O        29.5742011455       17.0791758160        9.5807846414
  O        30.8791921664       20.9551787518        5.6623768798
  O        32.8771613311       20.5883697475        6.6647830581
  O        31.6042273012       18.2430569497        5.8344016726
  O        28.2888454973       18.6797018465        8.0770253804
  O        32.4889938022       14.2086107549        9.3293820912
  O        32.4035974053       14.2127735095        6.8222282031
  O        29.9036412148       14.4331877211        5.5039743030
  O        28.0066165352       14.6499987579        6.7403864045
  O        17.8892602003        1.9667445196       10.6628178638
  O        18.9562727282        3.5272286949        9.4080218350
  O        39.1687438104       34.1390192878        7.9973119889
  O        43.2802467575       33.0590239252       10.3317255607
  O        42.0345704719       31.5064886107        9.2417170953
  O        20.3180038972        1.0370296779        9.4802308300
  O        43.2760063806       33.1826124850        5.5749370511
  O        42.0052217836       31.5841214151        6.5830087975
  O        40.5793887494       33.7755496408        5.9363625073
  O        22.3675312561        1.3848426455        7.9980483274
  O        36.6727527065       35.0998736826        9.2332302856
  O        16.4455903752        0.0645063480        6.6683724582
  O        17.9365334481        2.0435219249        5.3263931844
  O        18.9190486412        3.5931958469        6.6660075948
  O        29.5687694866       19.5617757134        4.0045202255
  O        29.7821638380       19.0584191474       11.9805430902
  O        31.5252151711       15.8966657845        4.0893029384
  O        31.4722979710       16.4151375251       11.9712239302
  O        29.4818108074       17.3678936414        1.4098134686
  O        30.3798434535       15.6726140631       14.2444867306
  O        31.5109059918       18.6857832258       14.4014793744
  O        28.7764228329       18.4619868817       14.3329682562
  O        39.4568358296       35.2438633742        4.0019647189
  O        19.1416832262        0.0046753463       11.9905495436
  O        41.9695698869       35.1727697195        4.0872889115
  O        21.6913328708       -0.0693513819       11.8960633743
  O        51.3649260803       18.6142457917        4.0054283438
  O        10.7511284855       18.7473287550       11.9049395372
  O        50.0797068437       16.4128782420        4.0917221316
  O         9.5249228429       16.4829828776       11.9912426969
 Zr         9.2958489819       16.0527104680        6.1823558129
 Zr        49.8355306839       16.0066481195        9.7466092344
 Zr        22.0736049978        0.0305540641        6.1889817510
 Zr        42.4614249553       35.1539907932        9.8012784109
 Zr        29.6152264982       19.0973994004        6.3508898565
 Zr        29.5871620096       19.1741079431        9.8965370631
 Zr        11.0372073840       19.0519302914        9.8275069262
 Zr        11.0430594597       19.1547870194        6.2513120471
 Zr        31.3723912492       16.1025276388        9.8854546615
 Zr        31.4044202789       16.0083303699        6.2978784008
 Zr        18.6015604747       -0.0005980745        9.7632821242
 Zr        18.5069733002       -0.0066218589        6.2141003336
 Zr        12.3008436454       16.3234806121        7.9901287231
 Zr        48.6152960935       18.8326698697        8.0104175647
 Zr        20.3157297711        2.4742198898        7.9910634601
 Zr        40.6444959910       32.6878533137        7.9786956688
 Zr        28.3442167221       16.3472195102        8.0958626883
 Zr        32.6630126415       18.8530157433        8.0743512217
  H        29.2105233137       16.8119801431        3.7866967240
  H        28.6462018274       19.4117573673        3.7209734174
