     563
 i =      135, E =     -4694.9598097293
  C        11.8588281608       14.0537074389        5.7415624865
  C        12.4564882165       12.8909290847        5.0231680545
  C        11.7047691197       12.1718409787        4.0816412976
  C        12.2811476789       11.1096211432        3.3893245329
  C        13.6217929903       10.7399423149        3.6168891018
  C        14.3550376290       11.4437318381        4.5901559596
  C        13.7821295837       12.5087157335        5.2816575410
  C        14.2612122562        9.6491665006        2.8435181115
  C        14.2561253397        9.6568444664        1.4218071088
  C        13.7428120361       10.7588616214        0.6678454457
  C        49.1266799204       21.2332108695        5.8797464601
  C        48.5498648663       22.4011434924        5.1526643428
  C        49.2999034926       23.0684710332        4.1716788542
  C        48.7329737652       24.1075953751        3.4384518225
  C        47.4024128668       24.5092120425        3.6669998789
  C        46.6714355174       23.8602851705        4.6804659268
  C        47.2338722448       22.8153802170        5.4098442078
  C        46.7722020081       25.5869284010        2.8697045730
  C        46.7613280480       25.5573688608        1.4479349140
  C        47.2612854018       24.4422788275        0.7044533475
  C        14.8599038758        8.5704089923        0.7085500601
  C        14.8921375990        8.5972944436        3.5201740991
  C        49.1135506445       21.2033158920       10.1453255086
  C        48.5282883213       22.3648317569       10.8724320649
  C        49.2674291457       23.0253273539       11.8655572713
  C        48.6912012048       24.0599701963       12.5969908009
  C        47.3609275198       24.4570773201       12.3585220613
  C        46.6406222204       23.8124472060       11.3347407059
  C        47.2140904175       22.7764515257       10.6030056594
  C        46.7224725461       25.5320604033       13.1495571044
  C        46.7339213935       25.5283113252       14.5712741281
  C        47.2492008739       24.4290460003       15.3276883948
  C        40.6093577431       17.1036043516       15.2884741504
  C        40.6095060795       17.1336130277       12.4784734414
  C        11.8830524603       14.0866038124       10.2854855346
  C        12.4720380139       12.9105051640       10.9894230340
  C        11.7144091224       12.1775638699       11.9156860290
  C        12.2807829651       11.0949920059       12.5840862636
  C        13.6194952274       10.7208808791       12.3521642064
  C        14.3574759284       11.4360952776       11.3910965870
  C        13.7923098446       12.5174141570       10.7184105930
  C        14.2530032459        9.6241278962       13.1226703070
  C        14.2517902082        9.6441672457       14.5445261239
  C        13.7420057820       10.7531650788       15.2915862429
  C        22.5112522140        3.2442814633        5.7511865949
  C        23.2241833693        4.3480083149        5.0478703102
  C        24.2166266461        4.0654718044        4.0975008294
  C        24.8433822121        5.1031510622        3.4123557268
  C        24.4935114329        6.4459798762        3.6569830827
  C        23.5287638707        6.7198457425        4.6438337291
  C        22.8973519157        5.6840834773        5.3274968012
  C        25.1004508866        7.5522349100        2.8815772096
  C        25.0729859765        7.5489269875        1.4598640789
  C        24.3736008233        6.5501279739        0.7106883712
  C        38.3023992772       31.9283723896        5.8458262226
  C        37.5700385156       30.8419896367        5.1298860082
  C        36.6098786463       31.1543900659        4.1548869659
  C        35.9830687290       30.1413409933        3.4338612909
  C        36.2996828892       28.7880910792        3.6648233989
  C        37.2332188859       28.4830824672        4.6739188876
  C        37.8642402098       29.4952444769        5.3940838814
  C        35.6791758324       27.7031175717        2.8685825964
  C        35.6958468092       27.7206342370        1.4459950607
  C        36.4023028201       28.7176825905        0.7019558862
  C        25.6936407294        8.6224851908        0.7429248136
  C        25.6993134353        8.6244491359        3.5549188682
  C        38.3212095071       31.9612634915       10.1527197202
  C        37.5784778362       30.8923801665       10.8853105370
  C        36.6445715579       31.2121683381       11.8834256370
  C        36.0106959499       30.2024640968       12.6056474054
  C        36.2944599777       28.8446408502       12.3556556144
  C        37.2048517001       28.5347047532       11.3262933229
  C        37.8408843380       29.5415801002       10.6045142874
  C        35.6674159139       27.7550278163       13.1429271695
  C        35.6892558775       27.7476061295       14.5660437431
  C        36.3995588791       28.7304295632       15.3249248646
  C        46.1358617337       26.6209480284       15.2813840977
  C        46.0886425980       26.5804903337       12.4734844126
  C        22.4629354043        3.2571852489       10.2562985183
  C        23.1600265019        4.3673149603       10.9745167177
  C        24.1681309133        4.0841269995       11.9099091973
  C        24.7978864486        5.1161283713       12.6017828148
  C        24.4397209232        6.4614665468       12.3821732254
  C        23.4554141284        6.7379769309       11.4143429865
  C        22.8215122045        5.7063338667       10.7222325124
  C        25.0685294434        7.5605769014       13.1578269168
  C        25.0569742564        7.5530733402       14.5806888544
  C        24.3642686569        6.5531357945       15.3338105387
  C        26.5621165147       17.8158579990        5.7406980486
  C        25.2534875607       17.8702202865        5.0258277654
  C        24.9881168806       18.8873553199        4.0952933662
  C        23.7763827645       18.9142002325        3.4098074726
  C        22.7969861758       17.9243196534        3.6278359087
  C        23.0569235126       16.9301371760        4.5896733003
  C        24.2689500359       16.9010170131        5.2779215626
  C        21.5352602780       17.9155224968        2.8469157276
  C        21.5606104616       17.9350716031        1.4249587960
  C        22.7806981661       17.8367825340        0.6846976666
  C        34.4483503659       17.1895862137        5.9173285639
  C        35.7426053755       17.1417199735        5.1756147772
  C        35.9472526519       16.1690571114        4.1839099406
  C        37.1244107849       16.1566590384        3.4409965639
  C        38.1314771013       17.1149777459        3.6690128768
  C        37.9304664036       18.0674146717        4.6864346308
  C        36.7496908977       18.0860038644        5.4263433433
  C        39.3814202602       17.1233028434        2.8735664043
  C        39.3675182910       17.1285998580        1.4512529513
  C        38.1552933245       17.2455411781        0.7009226913
  C        20.3266497983       17.9691453283        0.6964597598
  C        20.3006218368       17.8909482795        3.5088218039
  C        34.4072427202       17.2542902619       10.1841329559
  C        35.7141366723       17.1720281118       10.8969020792
  C        35.9240998606       16.1927199744       11.8804850361
  C        37.1155858819       16.1641593155       12.6002340099
  C        38.1280425035       17.1140497440       12.3596572530
  C        37.9234945863       18.0671981055       11.3434714219
  C        36.7305714619       18.1009539084       10.6251627422
  C        39.3809766583       17.1236709319       13.1500686091
  C        39.3669931400       17.1292992458       14.5725272029
  C        38.1549375377       17.2455352076       15.3239478830
  C        35.0541508064       26.6745388638       15.2758575556
  C        35.0518673003       26.6940688809       12.4653717021
  C        26.6832697090       17.8801684015       10.3418230303
  C        25.3767781202       17.9624363363       11.0611011114
  C        25.1162207919       18.9653622994       12.0070840753
  C        23.8816441286       19.0154332979       12.6542099838
  C        22.8765139404       18.0645084127       12.3810305465
  C        23.1359139103       17.0855641061       11.4042442090
  C        24.3670397917       17.0333217003       10.7562833668
  C        21.5933526084       18.0506003935       13.1274302450
  C        21.5893806576       18.0051680388       14.5488935039
  C        22.7942379733       17.8704556314       15.3092415917
  C        14.0583064448       17.8432423150       10.2742772464
  C        15.3828204382       17.9367159603       10.9628455804
  C        15.6451074139       18.9594715628       11.8883652553
  C        16.8683996199       19.0106464354       12.5549233311
  C        17.8664532916       18.0426729297       12.3203557231
  C        17.6122137090       17.0499493309       11.3550371974
  C        16.3880110215       16.9943887447       10.6891461118
  C        19.1336811264       18.0369597004       13.0977608785
  C        19.1071614591       18.0004185761       14.5205251844
  C        17.8876628209       17.8732037663       15.2585116000
  C        46.7995190922       17.2146935483       10.1528314590
  C        45.4993570634       17.1435606927       10.8825498824
  C        45.2821783833       16.1573058879       11.8572573177
  C        44.0935295234       16.1342971212       12.5826472795
  C        43.0906511703       17.0978293978       12.3570699840
  C        43.3027481606       18.0601970798       11.3512485129
  C        44.4921143032       18.0868502557       10.6264283638
  C        41.8381861681       17.1123859536       13.1493552122
  C        41.8518529304       17.1128543518       14.5717558969
  C        43.0658575788       17.2069884625       15.3226202794
  C        20.3405710179       18.0028368449       15.2513616771
  C        20.3712856839       18.0461337878       12.4379893887
  C        46.7854418094       17.2346893734        5.8816722855
  C        45.4877820696       17.1354011947        5.1519006886
  C        45.2754876041       16.1426945472        4.1826475284
  C        44.0915016093       16.1172350764        3.4486915411
  C        43.0875384345       17.0814430084        3.6656546124
  C        43.2924205048       18.0468151012        4.6697894184
  C        44.4774201191       18.0786031285        5.3988989406
  C        41.8375355226       17.0983384123        2.8716362360
  C        41.8520001462       17.1042259132        1.4498355878
  C        43.0659444738       17.2012432135        0.6994671830
  C        46.1534115591       26.6372918336        0.7261606063
  C        46.1622652860       26.6560685925        3.5358169868
  C        14.0398503743       17.8211926394        5.6955488605
  C        15.3447155670       17.8740541336        4.9718598968
  C        15.6030817297       18.8790799237        4.0271965135
  C        16.8185987983       18.9078684962        3.3470979980
  C        17.8062020086       17.9306800921        3.5853661103
  C        17.5505938654       16.9475810079        4.5596963359
  C        16.3368215030       16.9181724992        5.2430899318
  C        19.0782519819       17.9215892463        2.8233103446
  C        19.0791019582       17.9400567049        1.4009534265
  C        17.8742508109       17.8455732427        0.6349235055
  C        28.8019954376       14.0950254584       10.3611637584
  C        28.1960465976       12.9257357907       11.0583300983
  C        28.9089463134       12.2142189571       12.0348023274
  C        28.3109849048       11.1417163068       12.6921273591
  C        26.9860135959       10.7575929467       12.4001981706
  C        26.2956224311       11.4520637791       11.3901211310
  C        26.8906820545       12.5239081588       10.7304646216
  C        26.3164155382        9.6774039087       13.1609186846
  C        26.2962209162        9.7036498451       14.5822796972
  C        26.7884289974       10.8193115918       15.3314845231
  C        32.0546797617       21.2390681413       10.1849612117
  C        32.6243958782       22.4163903410       10.9026127838
  C        31.8848325995       23.0969285187       11.8827163594
  C        32.4577501437       24.1512334952       12.5904779690
  C        33.7851700105       24.5541224233       12.3416007224
  C        34.5031287174       23.8943163785       11.3259518490
  C        33.9341632859       22.8377874404       10.6197348392
  C        34.4292085645       25.6307479211       13.1307773170
  C        34.4431768233       25.5979233047       14.5526311482
  C        33.9453814266       24.4805117000       15.2942312523
  C        25.6893725768        8.6215943666       15.2979390221
  C        25.6850029781        8.6241394187       12.4850009236
  C        32.0946802189       21.1670060178        5.7970825551
  C        32.6611360389       22.3494324322        5.0815289414
  C        31.9266047299       23.0051170758        4.0811036643
  C        32.4908951956       24.0633667151        3.3720901884
  C        33.8080076629       24.4910361603        3.6347294136
  C        34.5221038782       23.8513357497        4.6665148197
  C        33.9594668180       22.7947453047        5.3779971288
  C        34.4452409108       25.5771315553        2.8530704017
  C        34.4522810998       25.5699368802        1.4302452065
  C        33.9507173002       24.4666226217        0.6706658932
  C        40.6093208234       17.1010362499        0.7341307923
  C        40.6100250312       17.1252876413        3.5441796399
  C        28.7479266238       14.0584172158        5.8112586340
  C        28.1364598596       12.9125999238        5.0768800518
  C        28.8644702434       12.2272764870        4.0923242602
  C        28.2812768458       11.1727268206        3.3945923114
  C        26.9538135396       10.7769922937        3.6556179661
  C        26.2437171783       11.4490379925        4.6680312018
  C        26.8252344451       12.5044052374        5.3677316825
  C        26.3089867025        9.6903122541        2.8805786411
  C        26.2942983047        9.7097944896        1.4587212452
  C        26.7861469822       10.8231851082        0.7075288258
  C        18.1353559266        3.1809785997       10.3171057731
  C        17.4059631767        4.2781080657       11.0157047329
  C        16.3900316713        3.9996527468       11.9429727925
  C        15.7421832130        5.0395473214       12.6064693566
  C        16.0941920545        6.3832919719       12.3670463897
  C        17.0838803489        6.6529376629       11.4036330495
  C        17.7330927395        5.6156674822       10.7385780316
  C        15.4696339321        7.4908989856       13.1300550532
  C        15.4848901663        7.4902282373       14.5517683640
  C        16.1865523430        6.4966903405       15.3049396082
  C        42.9458026856       31.8596372684       10.0728698216
  C        43.6463930781       30.7719398317       10.8166557941
  C        44.5917658550       31.0934038539       11.8028434684
  C        45.1976646709       30.0879514406       12.5504860409
  C        44.8716286001       28.7348139823       12.3354807739
  C        43.9460638057       28.4203418879       11.3220585356
  C        43.3370320700       29.4253892474       10.5740424548
  C        45.4892787275       27.6555644606       13.1387150242
  C        45.4932471538       27.6811121286       14.5604230913
  C        44.8061394624       28.6891569909       15.3070345770
  C        14.8559009467        8.5627260444       15.2641080556
  C        14.8743071883        8.5626107211       12.4514248478
  C        42.9464074278       31.9616880409        5.8090252392
  C        43.6916392390       30.8855101603        5.0955483479
  C        44.6560981125       31.1914257213        4.1231147659
  C        45.2776362490       30.1718562427        3.4053640823
  C        44.9539893037       28.8215115682        3.6430458576
  C        44.0206949076       28.5238388043        4.6540146662
  C        43.3924398543       29.5405893831        5.3662360250
  C        45.5630092559       27.7241032635        2.8577641992
  C        45.5334385952       27.7174611125        1.4364501507
  C        44.8272458189       28.7077385795        0.6834343342
  C        35.0579824149       26.6603538328        0.7217747906
  C        35.0692298754       26.6316089980        3.5321028305
  C        18.1485697327        3.2469607988        5.7065790740
  C        17.4300717785        4.3437810165        4.9972133683
  C        16.4145631227        4.0526138581        4.0739231886
  C        15.7663105570        5.0833048430        3.3985654302
  C        16.1213205728        6.4285096715        3.6210003296
  C        17.1131209625        6.7117808814        4.5778529161
  C        17.7607486449        5.6828194134        5.2576034377
  C        15.4907312759        7.5242157512        2.8485899437
  C        15.4962729549        7.5073941875        1.4274490398
  C        16.1929405873        6.5056249540        0.6807526377
  H        10.6725665088       12.4657954038        3.9047665737
  H        11.6947974387       10.5510000126        2.6629432671
  H        15.3921428802       11.1693091865        4.7717390978
  H        14.3516623478       13.0719973795        6.0170021444
  H        13.3759612885       11.6310855611        1.2011027735
  H        50.3226425237       22.7484856622        3.9870138583
  H        49.3194973995       24.6228881275        2.6809221244
  H        45.6419296492       24.1610399569        4.8635896170
  H        46.6628448447       22.2901040300        6.1719061973
  H        47.6297335462       23.5758648785        1.2461417084
  H        14.8728308819        8.5887476165        4.6084893209
  H        50.2873626495       22.7022267010       12.0606448469
  H        49.2695750934       24.5752217017       13.3606462966
  H        45.6113389327       24.1099656293       11.1454495389
  H        46.6533149209       22.2545077067        9.8312600087
  H        47.6080234334       23.5519367782       14.7968051189
  H        40.6091919439       17.1035831327       11.3904705557
  H        48.6869294751       14.0951105049        7.7999002888
  H        10.6810342380       12.4668994796       12.0932110669
  H        11.6889143400       10.5248076078       13.2968854949
  H        15.3928391313       11.1579997851       11.2050877710
  H        14.3648466757       13.0866518546        9.9899334983
  H        13.3751424930       11.6217529658       14.7529352434
  H        47.9301529324       14.2188071319        9.7111481488
  H        47.7799037681       14.3735392165        6.4951124302
  H        49.0824973151       18.5511941426       10.8668921843
  H        10.4161637664       14.1344400208        7.9991019416
  H        24.4749905659        3.0262746866        3.9065561903
  H        25.6136575787        4.8833940422        2.6762838786
  H        23.2511797175        7.7535560822        4.8392815568
  H        22.1307114301        5.8868392532        6.0713489482
  H        23.8134384974        5.7907672618        1.2485032183
  H        36.3780301436       32.1996943699        3.9648306786
  H        35.2373292881       30.3902006738        2.6820085917
  H        37.4880702951       27.4417773940        4.8601436691
  H        38.6085929569       29.2648023946        6.1527671051
  H        36.9789046558       29.4624427591        1.2429890555
  H        25.7372286870        8.6027667136        4.6425510723
  H        36.4363321050       32.2591869251       12.0918044029
  H        35.2832840084       30.4595523343       13.3725490248
  H        37.4374900571       27.4912332150       11.1239619647
  H        38.5658637218       29.3038422989        9.8296354992
  H        36.9751340595       29.4844177972       14.7957594595
  H        46.1102765468       26.5879795338       11.3854531464
  H        44.6684796097       35.1162712990        7.8139074069
  H        24.4487640868        3.0466020628       12.0767512214
  H        25.5824630239        4.8889506213       13.3204164945
  H        23.1670369577        7.7717306197       11.2348253586
  H        22.0458852691        5.9178442051        9.9897796648
  H        23.7967105704        5.7963897902       14.8000569753
  H        44.9542248597       34.3908069106        9.6955332696
  H        44.9022610717       34.2069896274        6.4906081743
  H        40.6646657302       33.2085689838       10.8526180453
  H        23.1503945611        1.9581426203        8.0045403204
  H        25.7420689806       19.6521532416        3.9243033403
  H        23.5743227415       19.7083328421        2.6943183009
  H        22.3120966020       16.1566619948        4.7655980838
  H        24.4822468055       16.1198038774        6.0037960984
  H        23.7123484685       17.7009347304        1.2262967306
  H        35.1649132125       15.4356476456        4.0033486224
  H        37.2798071035       15.3951369087        2.6798446615
  H        38.6987959768       18.8162589163        4.8676458394
  H        36.5795373550       18.8379768178        6.1934106827
  H        37.2191726754       17.3692838238        1.2379904613
  H        20.2900365394       17.9022980970        4.5972990521
  H        35.1338751640       15.4724081446       12.0795343242
  H        37.2746709532       15.4005864520       13.3585038811
  H        38.6973533305       18.8072176687       11.1500775938
  H        36.5560883918       18.8550453048        9.8612404980
  H        37.2179586895       17.3692239639       14.7885352114
  H        35.0144723851       26.7218996573       11.3778934209
  H        28.5044477921       21.1013989308        7.6894679037
  H        25.8895466002       19.7002733723       12.2198385282
  H        23.6832169590       19.7984163563       13.3830263206
  H        22.3731737962       16.3410638988       11.1855582398
  H        24.5755522899       16.2657593154       10.0153936480
  H        23.7367429063       17.7606745749       14.7811339947
  H        28.8935663398       21.7601981747        9.6330393518
  H        29.2096126779       21.6909618121        6.3661560640
  H        32.1129510450       18.6653700918       10.9151040457
  H        27.3987684152       19.0851275135        7.9179813439
  H        14.8775006126       19.7074158619       12.0743066378
  H        17.0625576641       19.8058599115       13.2716141676
  H        18.3712528461       16.2947623586       11.1610498508
  H        16.1818424407       16.2113319563        9.9631853251
  H        16.9550870098       17.7662947804       14.7124216655
  H        46.0629379240       15.4231741384       12.0420888953
  H        43.9286772957       15.3632261255       13.3320827650
  H        42.5372727661       18.8119288248       11.1700152004
  H        44.6714679626       18.8462148643        9.8688639384
  H        44.0043613209       17.3168806442       14.7869304355
  H        20.3841690511       18.0958147195       11.3504942584
  H        46.0533739604       15.4029540252        4.0074552140
  H        43.9309952037       15.3437562000        2.7007662008
  H        42.5244236886       18.7974740235        4.8444686010
  H        44.6533795173       18.8425408459        6.1523127744
  H        44.0045659298       17.3065192832        1.2358933030
  H        46.1990951243       26.6826031414        4.6232639818
  H        52.7411878919       21.0625700082        8.1948480887
  H        14.8429224142       19.6357913488        3.8463140719
  H        17.0188883256       19.6963097318        2.6248294710
  H        18.3022264550       16.1842710631        4.7503917642
  H        16.1279824761       16.1486109189        5.9824161002
  H        16.9314205072       17.7166612205        1.1583785592
  H        52.3228373714       21.6731918537        6.2940955592
  H        52.0123248519       21.7013578763        9.4954710667
  H        49.0683073450       18.6081993461        5.2039329837
  H        13.2476995343       19.0164901254        7.9713525064
  H        29.9263669917       12.5188901842       12.2691074482
  H        28.8666483328       10.5889539879       13.4464154134
  H        25.2718334968       11.1671981932       11.1565025042
  H        26.3535159271       13.0799073787        9.9661106187
  H        27.1435343851       11.6940764081       14.7950664015
  H        30.8643128009       22.7807612317       12.0856795688
  H        31.8784874627       24.6760633095       13.3470524492
  H        35.5295595925       24.1939509442       11.1245898489
  H        34.4966719273       22.3061561266        9.8560572153
  H        33.5850724383       23.6113551552       14.7516529480
  H        25.7200712175        8.6045905212       11.3971251208
  H        30.9183179807       22.6620275469        3.8605697900
  H        31.9117342500       24.5716303722        2.6043210081
  H        35.5413130469       24.1679678811        4.8782903628
  H        34.5199058705       22.2809754016        6.1553649266
  H        33.5958533150       23.5861716414        1.1985148362
  H        40.6102076357       17.0938659093        4.6320884802
  H        32.5092080573       14.1561891895        8.2629223637
  H        29.8879021454       12.5350710189        3.8909590590
  H        28.8533235628       10.6381074728        2.6394189178
  H        25.2167174504       11.1564019715        4.8766717453
  H        26.2726364493       13.0394653825        6.1362992043
  H        27.1377060481       11.7009905714        1.2420295128
  H        33.3059032010       14.2112089737        6.4543740093
  H        33.4025239872       14.3999712356        9.6105312328
  H        32.1122435991       18.4003445027        5.0502216983
  H        30.2319459758       14.1990747836        8.0807319305
  H        16.1179304311        2.9631310154       12.1291891983
  H        14.9525554596        4.8201172466       13.3219167411
  H        17.3665156302        7.6858164324       11.2108299365
  H        18.5154227007        5.8184553325       10.0110813732
  H        16.7531820229        5.7394072254       14.7714339975
  H        44.8277692073       32.1405286726       11.9771599250
  H        45.9374164790       30.3418810490       13.3064847125
  H        43.6837768254       27.3782055185       11.1517220019
  H        42.6006126140       29.1899201276        9.8092255308
  H        44.2309685460       29.4370387873       14.7686949050
  H        14.8506840021        8.5458693724       11.3632023740
  H        44.8996000504       32.2341090108        3.9316147088
  H        46.0244648861       30.4131567174        2.6520710630
  H        43.7639176047       27.4840892986        4.8457248624
  H        42.6461693425       29.3177730364        6.1249019899
  H        44.2687984396       29.4707069138        1.2179664153
  H        35.0358785520       26.6439217442        4.6199460287
  H        36.6052518090       35.1340309162        8.1807458065
  H        16.1431958991        3.0130813347        3.9043977660
  H        14.9737399242        4.8565505525        2.6887268194
  H        17.3970688794        7.7471822252        4.7544252070
  H        18.5440225576        5.8932625236        5.9819370397
  H        16.7645601072        5.7555168105        1.2191775926
  H        36.2787453516       34.4823881568        6.2731244586
  H        36.3815418977       34.2090906184        9.4997758998
  H        40.5806910784       33.2027403000        5.1537749406
  H        17.4711849856        1.9472670655        7.9742431106
  H        28.7794190547       18.6680637424        3.5957732888
  H        31.5268738455       15.5271461339        3.5675120150
  H        30.8468263135       15.5973308710       12.3017163796
  H        28.9069495792       15.4309338064       14.3639246096
  H        32.3687042389       16.7893752972        1.1734114950
  H        18.8543986040        0.8691426487       12.3354364293
  H        40.5281925168       35.2287416669        3.9519876575
  H        42.3247481317       34.4195363410        3.5899205000
  H        22.0876922954        0.6927435063       12.3514173531
  H        11.5970217031       18.7124306123       12.3832751055
  H        52.2652045539       18.4314906417        3.6784999337
  H        49.2545195816       16.4768037268        3.5849538232
  H        10.1506557610       15.7980607364       12.2924046385
  H        50.8501426617       17.6926116043        3.9540093397
  H        10.0462105184       17.3943659908       12.0519945967
  H        20.2159300099        0.0023650490       12.0418756404
  H        39.1839580253       36.1244932240        3.6867002513
 Ni        30.5245209909       17.4228226975        2.5042822838
 Ni        30.8156876313       15.7904152139       -0.3243521114
 Ni        29.9763962142       17.8340149567        0.0784920818
 Ni        30.3142464336       17.2066526846       13.7400473599
  O        10.6499577931       14.3651661609        5.4858997037
  O        12.6132268877       14.6576865754        6.5839980051
  O        49.1477096536       16.8458676810        7.9897973447
  O        50.3501320056       20.9360010461        5.6482634672
  O        48.3484681873       20.5932747696        6.6660275446
  O        11.0518151256       17.0534722398        6.5008850809
  O        50.3213483591       20.8815769689       10.4068369566
  O        48.3468736193       20.5866849017        9.3271836295
  O        49.5440827981       18.2482614471       10.0682937793
  O        12.3594612856       18.6245214643        7.9999888310
  O        48.6931644747       14.1487056523        6.7512495634
  O         8.2098104136       14.2106240309        9.3226686215
  O        10.7354385361       14.5068681931       10.6643121746
  O        12.5719548088       14.5829762121        9.3284986498
  O        22.8444507364        2.0426661106        5.4871367260
  O        21.6059058471        3.5923689663        6.5891121081
  O        42.0579903617       34.1372700995        7.9791958538
  O        37.9817452559       33.1373827281        5.5722034998
  O        39.2165662176       31.5745284427        6.6649586775
  O        20.3084512459        1.0396812476        6.5021400525
  O        38.0246302027       33.1861495402       10.4151997128
  O        39.2166629861       31.5817921404        9.3286360914
  O        40.6523329667       33.7694195452       10.0601014216
  O        18.2558187094        1.3760065057        7.9967803889
  O        44.6222281250       35.1005453179        6.7587939952
  O        24.2054043159        0.0000380265        9.3208095017
  O        22.7532682734        2.0588810226       10.5840617452
  O        21.6245335750        3.5962784171        9.3425099561
  O        27.4575888015       18.6775352354        5.4044018738
  O        26.6920761223       16.9284739568        6.6511318827
  O        30.6475166964       19.4083875123        7.9107158098
  O        33.5961217143       16.2748415769        5.6706358525
  O        34.2770913342       18.1703003151        6.7310618239
  O        29.5448489786       17.0097848878        6.4998917192
  O        33.5439550959       16.3413487988       10.4139727199
  O        34.2262816133       18.2572083849        9.4097986447
  O        31.5902177866       18.3747726980       10.1514228355
  O        30.3231613391       15.1659084417        8.0782499073
  O        28.5559962455       21.0264063331        6.6516716166
  O        28.5027349047       20.9685473253        9.2286942549
  O        27.6289272148       18.6872888604       10.6613258467
  O        26.7399694447       17.0031262203        9.4088976958
  O        13.1512387602       18.6931461349       10.5869026664
  O        13.9220129253       16.9170511676        9.4057877992
  O        50.5961739692       19.3500660774        8.0215116686
  O        47.6805621534       16.3275432246       10.4176222108
  O        46.9514144611       18.1761220207        9.3245505503
  O        11.0700697539       17.0152472518        9.4893946581
  O        47.6750997841       16.3361627325        5.6521192397
  O        46.9247285729       18.2356834350        6.6626334462
  O        49.5685333842       18.3176744831        5.9825661174
  O        10.3186750892       15.1002777794        7.9971236700
  O        52.6707750922       21.0279418287        9.2419167105
  O        12.1468181678       20.8910097617        6.6732927007
  O        13.1063435766       18.6136974926        5.3250096204
  O        13.9583715536       16.9877103658        6.6629358714
  O        29.9967243560       14.4409939996       10.6637026163
  O        28.0738840066       14.6682563507        9.4813389001
  O        32.0918334584       16.9109728157        8.0613567788
  O        30.8488051126       20.8812001673       10.4898560543
  O        32.8119447350       20.6636997745        9.3336267972
  O        29.5476994444       17.1288125143        9.4922488881
  O        30.8963576623       20.8101042772        5.4972073832
  O        32.8618720178       20.5908218561        6.6442351911
  O        31.6789003279       18.2385846756        5.9061200647
  O        28.2835456992       18.6836754127        7.9168451710
  O        32.4874575466       14.2185545552        9.3306177422
  O        32.4046519554       14.2179402829        6.8179086447
  O        29.9196120956       14.4299312949        5.4860854992
  O        28.0396344282       14.5839154539        6.7461408992
  O        17.8891980435        1.9664910193       10.6627604016
  O        18.9562028603        3.5271077672        9.4079831055
  O        39.1685388403       34.1385074148        7.9973713623
  O        43.2801443816       33.0589808866       10.3316646544
  O        42.0342393378       31.5065245349        9.2416653394
  O        20.3179754172        1.0370462028        9.4799997839
  O        43.2760395618       33.1825912423        5.5749077864
  O        42.0051779456       31.5841683658        6.5830715089
  O        40.5789486021       33.7748318572        5.9363222866
  O        22.3674253147        1.3846697927        7.9979917429
  O        36.6728367365       35.0998508148        9.2333262271
  O        16.4456387432        0.0642174611        6.6682610247
  O        17.9364053816        2.0432292275        5.3264450474
  O        18.9190275301        3.5930965837        6.6658962625
  O        29.7023378704       18.6081085843        3.9029787533
  O        31.3452283581       16.3391929433        4.0741728269
  O        31.1638723706       16.4717310267       11.9898043615
  O        31.5588269407       16.2661954993        1.3242069120
  O        29.8610666829       15.3980933520       14.1567689443
  O        39.4568369382       35.2436963379        4.0020522649
  O        19.1422185453        0.0047331223       11.9904698714
  O        41.9693883369       35.1725377315        4.0871562575
  O        21.6915094227       -0.0690037481       11.8960317165
  O        51.3648946957       18.6143493516        4.0055226127
  O        10.7516011421       18.7471138001       11.9050501742
  O        50.0791534115       16.4127536972        4.0919104691
  O         9.5246934502       16.4829842215       11.9911906770
 Zr         9.2969614275       16.0526295494        6.1824069423
 Zr        49.8365020861       16.0068961386        9.7464572228
 Zr        22.0735184254        0.0304326034        6.1889694024
 Zr        42.4613242295       35.1542442751        9.8012075130
 Zr        29.5904782380       19.0040197626        6.0687959539
 Zr        29.5838081348       19.2212799124        9.6168950694
 Zr        11.0391613823       19.0513752539        9.8284827055
 Zr        11.0437719076       19.1546506119        6.2517495102
 Zr        31.3220107323       16.1299065583        9.8758576221
 Zr        31.3869191211       15.9984819797        6.2239721847
 Zr        18.6018793889       -0.0005695335        9.7635548988
 Zr        18.5068167092       -0.0073412505        6.2138326503
 Zr        12.3034216043       16.3236779593        7.9909574780
 Zr        48.6163095770       18.8329325537        8.0103367272
 Zr        20.3159571004        2.4745154742        7.9904102046
 Zr        40.6434427527       32.6873600981        7.9784922606
 Zr        28.3354512569       16.3287711908        8.0354141228
 Zr        32.6272734027       18.8400120468        7.9962191488
  H        29.3314065797       17.8704742637        1.5100444295
