     571
 i =      261, E =     -4761.6388802988
  C        11.8587126164       14.0535032444        5.7415580185
  C        12.4561774182       12.8905000212        5.0233286122
  C        11.7044966694       12.1716808278        4.0815743766
  C        12.2808281421       11.1094403321        3.3892403733
  C        13.6213490508       10.7394964745        3.6170620151
  C        14.3544593026       11.4429129675        4.5906906462
  C        13.7816274418       12.5079232851        5.2821941538
  C        14.2609051513        9.6488666678        2.8436367890
  C        14.2562251497        9.6568113608        1.4219306144
  C        13.7429690887       10.7588998782        0.6680305586
  C        49.1266440324       21.2334144739        5.8796875378
  C        48.5497915543       22.4012764257        5.1525897296
  C        49.2998820227       23.0687799391        4.1717606023
  C        48.7329054576       24.1078588799        3.4385206798
  C        47.4022776160       24.5092699597        3.6669980518
  C        46.6712343751       23.8602019294        4.6803109536
  C        47.2337251003       22.8153274144        5.4096773338
  C        46.7720542244       25.5869626708        2.8697078453
  C        46.7610084723       25.5573266316        1.4479514129
  C        47.2609090400       24.4421904355        0.7044998231
  C        14.8602798877        8.5705421020        0.7086578497
  C        14.8917594093        8.5969478374        3.5202751598
  C        49.1130604418       21.2033687841       10.1453233968
  C        48.5276427324       22.3647077580       10.8725346755
  C        49.2668112175       23.0254065360       11.8654992418
  C        48.6904716552       24.0599724178       12.5969407397
  C        47.3600731343       24.4567431828       12.3586383717
  C        46.6396876077       23.8118489647       11.3350902209
  C        47.2132734242       22.7759329269       10.6033396079
  C        46.7216129861       25.5317353079       13.1496265664
  C        46.7332590148       25.5280899810       14.5713308900
  C        47.2486383065       24.4288669915       15.3277387152
  C        40.6270749957       17.1423212439       15.2949810550
  C        40.6371720131       17.1836432889       12.4862557212
  C        11.8829578364       14.0864948850       10.2854672206
  C        12.4722498491       12.9106534848       10.9896624945
  C        11.7147496055       12.1775094728       11.9158341271
  C        12.2813250187       11.0950498528       12.5842601407
  C        13.6201339106       10.7212857239       12.3524174117
  C        14.3580939625       11.4367907201       11.3915537496
  C        13.7926686203       12.5179475561       10.7188432080
  C        14.2537667031        9.6245573287       13.1228396597
  C        14.2524492902        9.6445078125       14.5446834970
  C        13.7424480591       10.7533854725       15.2917756401
  C        22.5103355047        3.2451273987        5.7532021787
  C        23.2202003856        4.3536410801        5.0545204575
  C        24.2178767891        4.0807527179        4.1071103763
  C        24.8382819408        5.1253457159        3.4266779873
  C        24.4763188372        6.4647013072        3.6733379909
  C        23.5072394980        6.7290704239        4.6580603636
  C        22.8824300317        5.6865107186        5.3369712918
  C        25.0747430642        7.5755737311        2.8988078540
  C        25.0489731111        7.5674491792        1.4773627423
  C        24.3489777484        6.5663592224        0.7314965022
  C        38.2994357900       31.9270353438        5.8490286684
  C        37.5613921049       30.8382104626        5.1419891266
  C        36.5972642684       31.1456853479        4.1692331168
  C        35.9687489951       30.1289024931        3.4546821881
  C        36.2879812635       28.7768027490        3.6891725704
  C        37.2227966195       28.4766817106        4.6983740239
  C        37.8553428887       29.4925373520        5.4122163842
  C        35.6761741561       27.6885029100        2.8899247304
  C        35.7144794753       27.7022717448        1.4676995585
  C        36.4257183256       28.7027421948        0.7328240814
  C        25.6710840284        8.6376915099        0.7574213022
  C        25.6640231145        8.6546079036        3.5702162129
  C        38.3285708906       31.9613136137       10.1576608118
  C        37.6066327757       30.8880013953       10.9014735228
  C        36.6741115850       31.1972896536       11.9036650410
  C        36.0610266972       30.1797438516       12.6326977367
  C        36.3654180523       28.8262654704       12.3838034953
  C        37.2769763590       28.5269223864       11.3525516255
  C        37.8921005057       29.5410335772       10.6247571587
  C        35.7517733332       27.7275537013       13.1660963745
  C        35.7534223387       27.7221625008       14.5886404523
  C        36.4431104879       28.7128755794       15.3559287036
  C        46.1352997095       26.6207684311       15.2814457725
  C        46.0877024913       26.5801092991       12.4735527339
  C        22.4597944472        3.2570926710       10.2593459907
  C        23.1498230749        4.3676573058       10.9841237143
  C        24.1481485841        4.0853900949       11.9302058903
  C        24.7714780199        5.1179915108       12.6271829053
  C        24.4175311152        6.4633934430       12.4007862312
  C        23.4423636455        6.7388026000       11.4232893403
  C        22.8140104082        5.7064994462       10.7272896067
  C        25.0445334394        7.5643119160       13.1752122652
  C        25.0337259507        7.5611141582       14.5981268942
  C        24.3392424970        6.5649588021       15.3546892951
  C        26.6192435637       17.8583617193        5.7486556546
  C        25.3135227844       17.9209183090        5.0279984226
  C        25.0514256326       18.9203838611        4.0780101396
  C        23.8332710347       18.9458614865        3.4014856355
  C        22.8424841109       17.9751959898        3.6533393743
  C        23.0995819626       17.0013319487        4.6367585628
  C        24.3180008235       16.9711508861        5.3115563889
  C        21.5689867316       17.9589631433        2.8916136729
  C        21.5710922133       17.9319721842        1.4695412003
  C        22.7773775305       17.8023820382        0.7113199131
  C        34.4431741910       17.1835452812        5.8825248492
  C        35.7396423072       17.1182667328        5.1483987580
  C        35.9329533800       16.1621628197        4.1395807751
  C        37.1158398306       16.1482460852        3.4050655753
  C        38.1340424825       17.0875906520        3.6609658299
  C        37.9432910051       18.0200403428        4.6981431434
  C        36.7583809244       18.0409023103        5.4288901544
  C        39.3859991365       17.1056530052        2.8720924490
  C        39.3772642449       17.1401623023        1.4509333010
  C        38.1683507975       17.2764688610        0.6980566475
  C        20.3251941751       17.9471096714        0.7605172753
  C        20.3446702478       17.9597972649        3.5742075100
  C        34.4861671792       17.2489635927       10.1079259114
  C        35.7794120580       17.1892858540       10.8481388253
  C        35.9779627672       16.2191438898       11.8421175854
  C        37.1545578130       16.2074507625       12.5859104836
  C        38.1616567034       17.1646688906       12.3549388746
  C        37.9667214910       18.1130375196       11.3330218367
  C        36.7875999684       18.1306252849       10.5923941659
  C        39.4073429856       17.1775115564       13.1534580199
  C        39.3879898521       17.1783059958       14.5747570225
  C        38.1733016879       17.2946677770       15.3214329781
  C        35.1177766695       26.6441434442       15.2899782630
  C        35.1635686658       26.6566798545       12.4806859268
  C        26.5718066578       17.8292708780       10.3237585460
  C        25.2562862425       17.8737644663       11.0292554841
  C        24.9957637877       18.8762108388       11.9756268353
  C        23.7773527408       18.9036664280       12.6483107120
  C        22.7914755424       17.9279969119       12.3989442292
  C        23.0471915270       16.9497834366       11.4210453265
  C        24.2660305105       16.9207063171       10.7460159932
  C        21.5272472300       17.9113624051       13.1705942011
  C        21.5491173266       17.9046379194       14.5920430478
  C        22.7666254936       17.7883864741       15.3351130234
  C        14.0461757288       17.8298919115       10.2871843064
  C        15.3511953271       17.8894990347       11.0099889641
  C        15.6082839261       18.8960134764       11.9537911412
  C        16.8176942956       18.9188139421       12.6454669542
  C        17.8032311097       17.9379056994       12.4148802407
  C        17.5512891342       16.9560722697       11.4382173041
  C        16.3413298117       16.9287259167       10.7481539325
  C        19.0713683317       17.9215101277       13.1842331138
  C        19.0679666802       17.9213140625       14.6065137187
  C        17.8601330228       17.8249102406       15.3668638040
  C        46.8043567316       17.2175481385       10.1545352266
  C        45.5104069639       17.1561675787       10.8909215271
  C        45.2949079614       16.1769137358       11.8724210868
  C        44.1099925607       16.1653152699       12.6028947098
  C        43.1130178306       17.1333318595       12.3731375761
  C        43.3240832913       18.0895264253       11.3618899852
  C        44.5093606961       18.1048870492       10.6322943959
  C        41.8618607947       17.1562141492       13.1623311489
  C        41.8718197697       17.1530005780       14.5836543081
  C        43.0834528162       17.2420038159       15.3386662362
  C        20.3138074151       17.9334045326       15.3157411508
  C        20.2958712380       17.9000122113       12.5030277107
  C        46.7859024760       17.2326822523        5.8844625305
  C        45.4872790295       17.1281952491        5.1593952881
  C        45.2798032143       16.1376461229        4.1870932550
  C        44.0955905168       16.1092535354        3.4542965572
  C        43.0880459130       17.0679376088        3.6769553068
  C        43.2869681224       18.0292279890        4.6858170528
  C        44.4725906781       18.0645671461        5.4132133980
  C        41.8408877916       17.0871431409        2.8802156559
  C        41.8615451760       17.1152988005        1.4593071980
  C        43.0784517108       17.2237099575        0.7153851351
  C        46.1530681765       26.6372444057        0.7262018037
  C        46.1621717554       26.6561100353        3.5358390434
  C        14.0443012446       17.8324416066        5.7086384955
  C        15.3640761923       17.9098373395        5.0165333700
  C        15.6323609826       18.9270205554        4.0883616820
  C        16.8596259830       18.9687122129        3.4307832265
  C        17.8460313475       17.9924824546        3.6761153199
  C        17.5844735557       17.0039378295        4.6422576093
  C        16.3590797195       16.9616706794        5.3032458949
  C        19.1127503065       17.9726310085        2.9064740798
  C        19.0896219977       17.9472645347        1.4848908842
  C        17.8705617546       17.8362937236        0.7432126455
  C        28.8088319778       14.0926712883       10.3881344746
  C        28.1881278830       12.9241968141       11.0796705720
  C        28.9070814934       12.1853534165       12.0307794622
  C        28.3040581308       11.1132371752       12.6839474683
  C        26.9679647572       10.7565671136       12.4106444981
  C        26.2702310243       11.4770474834       11.4247166374
  C        26.8711092229       12.5492504760       10.7697232597
  C        26.2960059145        9.6783896892       13.1722264494
  C        26.2803564296        9.7070080652       14.5934364473
  C        26.7850440999       10.8196318121       15.3390919245
  C        32.1841071895       21.2449609877       10.1005226246
  C        32.7742945754       22.4061539106       10.8353422656
  C        32.0235745968       23.0715329364       11.8168647600
  C        32.5891771384       24.1084883077       12.5542030481
  C        33.9214094619       24.5088411438       12.3321289276
  C        34.6556454348       23.8584635037       11.3220343345
  C        34.0928034443       22.8160942515       10.5872070638
  C        34.5452000939       25.5859214215       13.1366679272
  C        34.5309599579       25.5592997287       14.5587029397
  C        34.0209217109       24.4439458862       15.2952279081
  C        25.6687746697        8.6303665752       15.3124189701
  C        25.6610859947        8.6261845814       12.4991078737
  C        32.0931715497       21.1738207532        5.8339163627
  C        32.6545773236       22.3448412560        5.0982508154
  C        31.9218695493       22.9957386584        4.0931937241
  C        32.4922904554       24.0438484147        3.3725379198
  C        33.8098697805       24.4706735259        3.6354203733
  C        34.5216799190       23.8348223441        4.6710214151
  C        33.9563646665       22.7847032881        5.3885629196
  C        34.4509682120       25.5579287939        2.8586883942
  C        34.4810617064       25.5456285609        1.4366075019
  C        33.9961047756       24.4382045504        0.6717697839
  C        40.6217167608       17.1226165803        0.7393463587
  C        40.6114160567       17.0970102808        3.5481344593
  C        28.7156610539       14.0955619198        5.8172883174
  C        28.0980891818       12.9490047312        5.0865987321
  C        28.8392229340       12.2312105770        4.1344749870
  C        28.2548867195       11.1778623002        3.4356906299
  C        26.9138629325       10.8108919994        3.6662285987
  C        26.1897143218       11.5132413968        4.6480594351
  C        26.7715008222       12.5702718902        5.3464876909
  C        26.2744064754        9.7180380673        2.8930202985
  C        26.2721138816        9.7267929155        1.4708387600
  C        26.7794532254       10.8302506016        0.7153283601
  C        18.1354018628        3.1809909535       10.3172359019
  C        17.4062193051        4.2782222548       11.0159136437
  C        16.3903018423        3.9999201569       11.9432340242
  C        15.7426082134        5.0399491954       12.6066799398
  C        16.0947645566        6.3836381012       12.3671724177
  C        17.0844074775        6.6530930243       11.4036656599
  C        17.7334867650        5.6157169841       10.7386608592
  C        15.4703757219        7.4913326568       13.1301749319
  C        15.4856255435        7.4906227245       14.5518793760
  C        16.1872686931        6.4970583678       15.3050261949
  C        42.9459009153       31.8595742049       10.0727199798
  C        43.6462594752       30.7718693237       10.8166500929
  C        44.5917150328       31.0931975338       11.8027987527
  C        45.1973682805       30.0876366416       12.5504880909
  C        44.8709798398       28.7345690303       12.3355921580
  C        43.9452468315       28.4202388105       11.3222850772
  C        43.3364819747       29.4253807906       10.5741991687
  C        45.4885120627       27.6552605581       13.1388059358
  C        45.4926630715       27.6809171150       14.5604997939
  C        44.8056595102       28.6890364782       15.3071036621
  C        14.8565416773        8.5630459535       15.2642296530
  C        14.8750704343        8.5630643218       12.4515567235
  C        42.9464985272       31.9617051585        5.8089936196
  C        43.6917346040       30.8855817286        5.0955401437
  C        44.6561964401       31.1914937778        4.1231079251
  C        45.2776696697       30.1719003586        3.4053495188
  C        44.9539637656       28.8215738215        3.6430490575
  C        44.0206512768       28.5239133804        4.6539991528
  C        43.3924416312       29.5406789439        5.3662197184
  C        45.5629420495       27.7241529747        2.8577911153
  C        45.5331645658       27.7174407932        1.4364925166
  C        44.8269487283       28.7077130104        0.6834975268
  C        35.0950601313       26.6360698555        0.7355975455
  C        35.0604367957       26.6160081617        3.5461330391
  C        18.1486305652        3.2469566176        5.7065748318
  C        17.4301204503        4.3437661412        4.9971898693
  C        16.4147642724        4.0525371695        4.0737653625
  C        15.7664610632        5.0831874782        3.3984002794
  C        16.1212306273        6.4284013334        3.6210679920
  C        17.1127946179        6.7117504494        4.5781362834
  C        17.7604595042        5.6828187732        5.2578749930
  C        15.4906836970        7.5240934770        2.8486567707
  C        15.4965993510        7.5074945415        1.4275294863
  C        16.1934613408        6.5058642929        0.6808352911
  H        10.6723998814       12.4658872265        3.9044901469
  H        11.6945260565       10.5510185336        2.6626652946
  H        15.3914300103       11.1681676499        4.7725436391
  H        14.3510640122       13.0710296776        6.0177403266
  H        13.3758426694       11.6309725451        1.2013463038
  H        50.3226719771       22.7489103764        3.9871828945
  H        49.3194144400       24.6232798688        2.6810681438
  H        45.6416600647       24.1607904155        4.8633140467
  H        46.6626468252       22.2898599956        6.1715683643
  H        47.6294043061       23.5758118599        1.2462157536
  H        14.8720990231        8.5881662544        4.6085828027
  H        50.2868579873       22.7025662520       12.0604156538
  H        49.2688476901       24.5754555476       13.3604369033
  H        45.6103026334       24.1091187648       11.1459612762
  H        46.6524849522       22.2537953949        9.8317320880
  H        47.6073678725       23.5517190916       14.7968548090
  H        40.6407119327       17.1531250396       11.3983952617
  H        48.6869329528       14.0949160171        7.7999974193
  H        10.6812758347       12.4665789836       12.0932377298
  H        11.6895065223       10.5246361950       13.2969206637
  H        15.3935186848       11.1588853417       11.2056074315
  H        14.3650146745       13.0872826856        9.9902930513
  H        13.3755368726       11.6219690742       14.7531482488
  H        47.9302672119       14.2179480904        9.7110965170
  H        47.7798856606       14.3728034239        6.4950160877
  H        49.0829619992       18.5521300855       10.8670119225
  H        10.4158882755       14.1342867768        7.9988035542
  H        24.4848180581        3.0440556096        3.9141865338
  H        25.6120769409        4.9139980283        2.6918384812
  H        23.2204891680        7.7600034375        4.8548962463
  H        22.1118138070        5.8809045078        6.0788473998
  H        23.7878502551        5.8096747472        1.2719896584
  H        36.3644862971       32.1899841070        3.9746637062
  H        35.2218702807       30.3741067450        2.7027157326
  H        37.4790159109       27.4364021181        4.8884560603
  H        38.6017364826       29.2655544404        6.1699148203
  H        36.9886047795       29.4526328066        1.2809709744
  H        25.6954459547        8.6393292753        4.6581831013
  H        36.4497047495       32.2416492345       12.1086627725
  H        35.3320199332       30.4266520057       13.4013684746
  H        37.5252311999       27.4865613397       11.1530317661
  H        38.6173896327       29.3135021247        9.8472992904
  H        37.0203701920       29.4703724157       14.8334935352
  H        46.1091763344       26.5875105914       11.3855172822
  H        44.6684048272       35.1163098947        7.8139052252
  H        24.4268619166        3.0480169119       12.1011594569
  H        25.5492579252        4.8911936278       13.3532722808
  H        23.1569707078        7.7724834517       11.2386803122
  H        22.0453747838        5.9173484854        9.9873370001
  H        23.7698361343        5.8077929285       14.8234398068
  H        44.9542984384       34.3909300051        9.6955800003
  H        44.9021344423       34.2070357236        6.4905372669
  H        40.6661164103       33.2089800218       10.8529779224
  H        23.1501072232        1.9583389629        8.0057190097
  H        25.8083661253       19.6778975186        3.8874062145
  H        23.6338777293       19.7263514501        2.6702938827
  H        22.3452719634       16.2440398750        4.8404528445
  H        24.5282409242       16.2063059767        6.0555003460
  H        23.7173593871       17.6814497704        1.2417561827
  H        35.1371787744       15.4482947381        3.9375531704
  H        37.2662639100       15.4015777297        2.6283260380
  H        38.7224968482       18.7521160825        4.8999739445
  H        36.5918183228       18.7772293244        6.2116839707
  H        37.2318658710       17.3972644625        1.2349666029
  H        20.3507548739       18.0018019075        4.6619927252
  H        35.1906006201       15.4917152063       12.0262878240
  H        37.3087866071       15.4496125832       13.3509308176
  H        38.7374372906       18.8592317057       11.1511456240
  H        36.6163539293       18.8797168058        9.8228083834
  H        37.2405792355       17.4288271557       14.7810908569
  H        35.1413600219       26.6827750846       11.3928495225
  H        28.5108323612       21.0922296881        7.9770879767
  H        25.7620077159       19.6243321761       12.1665205320
  H        23.5743492577       19.6855722788       13.3769185936
  H        22.2944167531       16.1893347529       11.2235317542
  H        24.4800227029       16.1538310512       10.0053820707
  H        23.6980973274       17.6573124491       14.7924996345
  H        29.0006190646       21.7211153325        9.7609435835
  H        29.1127303329       21.7688711041        6.5967891629
  H        32.1235831808       18.5777579972       10.8930772523
  H        27.3971925334       19.0795297210        8.0701014121
  H        14.8497227845       19.6553620283       12.1300647254
  H        17.0141261444       19.7050222638       13.3712778620
  H        18.3025195252       16.1913348789       11.2517534458
  H        16.1341734963       16.1575765435       10.0100127633
  H        16.9180976862       17.7088320884       14.8388441215
  H        46.0732581958       15.4402477261       12.0570462952
  H        43.9421775130       15.4002150602       13.3576827312
  H        42.5609115336       18.8434494891       11.1804132551
  H        44.6914074970       18.8578461797        9.8691729289
  H        44.0234561554       17.3572420658       14.8066801299
  H        20.2906426283       17.9283361167       11.4148673983
  H        46.0619335111       15.4033474166        4.0082099048
  H        43.9380350396       15.3394455020        2.7019801337
  H        42.5143939191       18.7742268464        4.8643496406
  H        44.6459879223       18.8258307904        6.1698933732
  H        44.0146791027       17.3246332605        1.2567437602
  H        46.1990750132       26.6826862629        4.6232820316
  H        52.7410832624       21.0626138447        8.1946422043
  H        14.8690992164       19.6786000779        3.8992094798
  H        17.0670150446       19.7604980844        2.7141405476
  H        18.3377660782       16.2437963949        4.8388075209
  H        16.1415593016       16.1857744000        6.0332539854
  H        16.9364849794       17.7288057305        1.2863686521
  H        52.3222687124       21.6733416920        6.2945156220
  H        52.0132468138       21.7021355944        9.4956381641
  H        49.0676468186       18.6078441696        5.2036445015
  H        13.2472344359       19.0165984350        7.9771362952
  H        29.9358846894       12.4669836634       12.2441004174
  H        28.8636387426       10.5388326200       13.4190769948
  H        25.2375641044       11.2122859613       11.2069241556
  H        26.3302256727       13.1266683060       10.0239976732
  H        27.1527960631       11.6861568872       14.7978903499
  H        31.0005530482       22.7495873415       11.9974690842
  H        31.9997751778       24.6235037897       13.3097097301
  H        35.6873793378       24.1554254105       11.1448550189
  H        34.6664480952       22.2894170409        9.8278705409
  H        33.6721230309       23.5731123675       14.7474979411
  H        25.6939216893        8.6054888203       11.4112015876
  H        30.9071110268       22.6645422268        3.8834128063
  H        31.9158510114       24.5488899766        2.6004489198
  H        35.5409001742       24.1516158570        4.8824452717
  H        34.5140781481       22.2735430347        6.1696625934
  H        33.6294243098       23.5616262212        1.1978313179
  H        40.6071472071       17.0455903682        4.6352456995
  H        32.5181375894       14.1439367117        8.2321588345
  H        29.8764809882       12.5085480088        3.9611298995
  H        28.8374647815       10.6200021923        2.7056698021
  H        25.1525857280       11.2419235830        4.8344350687
  H        26.2079373938       13.1276715056        6.0911001032
  H        27.1416215846       11.7051180907        1.2474577084
  H        33.2965907014       14.1910097403        6.4378776561
  H        33.4100292497       14.3856402193        9.6010927536
  H        32.1498126921       18.5063788865        5.1033765631
  H        30.2230593270       14.1895113888        8.0693935622
  H        16.1180451775        2.9634423965       12.1294896216
  H        14.9529763501        4.8206516105       13.3221637570
  H        17.3670984249        7.6859318638       11.2107513687
  H        18.5157719153        5.8183260010       10.0110726001
  H        16.7539364395        5.7398163412       14.7715100715
  H        44.8279933018       32.1402756017       11.9770243786
  H        45.9372264517       30.3414021746       13.3064371293
  H        43.6826504424       27.3781571166       11.1520778743
  H        42.5999872450       29.1900463460        9.8094153890
  H        44.2304271790       29.4368861937       14.7687840636
  H        14.8513736174        8.5463209925       11.3633339637
  H        44.8997197701       32.2341699275        3.9316057571
  H        46.0245080401       30.4131496595        2.6520515070
  H        43.7638306640       27.4841704277        4.8456901670
  H        42.6461157473       29.3178782173        6.1248326996
  H        44.2685538361       29.4706995808        1.2180548141
  H        35.0115222417       26.6291376050        4.6334072746
  H        36.6052507584       35.1339295197        8.1807230466
  H        16.1435798014        3.0129759073        3.9041175587
  H        14.9740392933        4.8564009680        2.6884061109
  H        17.3964525958        7.7471951806        4.7549052246
  H        18.5434866287        5.8932461599        5.9824795845
  H        16.7649896079        5.7557023200        1.2192752607
  H        36.2786849953       34.4823578013        6.2729707652
  H        36.3809150801       34.2091196090        9.4997164321
  H        40.5797899159       33.2022025028        5.1536693455
  H        17.4709993236        1.9470899879        7.9741249476
  H        29.1394876907       19.4815369547       12.5079911119
  H        29.9565121724       19.3903746374        3.0969119805
  H        30.8694602373       15.4485664149        3.7327204324
  H        31.2200530447       15.5431523058       12.4307542932
  H        28.1993424228       18.1841987139       14.6446070912
  H        29.3480670519       15.3778530074       14.3688954891
  H        31.6106415028       19.8520283551        1.5261248740
  H        33.1767147149       16.7763836970        1.0997462410
  H        32.4503305033       18.3511601437       14.1956419199
  H        18.8536888741        0.8690353675       12.3352218543
  H        40.5281152346       35.2289028016        3.9520102581
  H        42.3248726445       34.4197234747        3.5901090932
  H        22.0876774011        0.6923601458       12.3513422985
  H        11.5969230453       18.7128699950       12.3824233259
  H        52.2647358136       18.4311197081        3.6773608028
  H        49.2553581874       16.4769538562        3.5844007371
  H        10.1501119869       15.7981484761       12.2928645922
  H        50.8498751523       17.6923144743        3.9542230157
  H        10.0460197652       17.3945103975       12.0519675742
  H        20.2150945510        0.0022782240       12.0419026717
  H        39.1838136460       36.1245299031        3.6866738033
 Ni        31.2013992621       17.5193532663        2.4998988719
 Ni        31.2003996679       16.4483368856       -0.3324711777
 Ni        30.2697144356       18.8878704591       -0.3258525733
 Ni        30.1822649759       17.5222952512       12.9932477506
  O        10.6499639679       14.3651161784        5.4858203580
  O        12.6132131771       14.6575105617        6.5838793801
  O        49.1479612699       16.8459591477        7.9897235205
  O        50.3501159363       20.9362047587        5.6481520443
  O        48.3484918879       20.5933306143        6.6658734321
  O        11.0514154881       17.0539624251        6.5007013591
  O        50.3209077116       20.8816914553       10.4067966458
  O        48.3467246694       20.5867141576        9.3270366499
  O        49.5436728631       18.2484511283       10.0681969010
  O        12.3589126194       18.6245749713        7.9996825060
  O        48.6932406409       14.1485644810        6.7512967557
  O         8.2098985480       14.2104299450        9.3225757768
  O        10.7353760304       14.5067307187       10.6643218557
  O        12.5718002904       14.5828249297        9.3284686256
  O        22.8446534398        2.0443118638        5.4871611099
  O        21.6044996795        3.5917648406        6.5910215538
  O        42.0580378634       34.1372823843        7.9789742823
  O        37.9813372603       33.1359315319        5.5719016157
  O        39.2167116360       31.5744091579        6.6651836353
  O        20.3084161993        1.0395290385        6.5021303600
  O        38.0244906318       33.1852927467       10.4155691607
  O        39.2184583716       31.5830999670        9.3271402594
  O        40.6522904798       33.7692156388       10.0600450598
  O        18.2556368703        1.3758303154        7.9967669762
  O        44.6221764866       35.1006159152        6.7587530536
  O        24.2053662212        0.0000693736        9.3207934741
  O        22.7531217864        2.0588546561       10.5844301236
  O        21.6244370649        3.5962059418        9.3428695405
  O        27.5444435098       18.6903901158        5.4072386343
  O        26.7299480042       16.9909060546        6.6679523132
  O        30.6696368418       19.4103060089        8.0017255187
  O        33.5888423775       16.2661801392        5.6595514034
  O        34.2734209158       18.1840683599        6.6638242790
  O        29.5745999668       17.0699305858        6.5745884076
  O        33.6315755937       16.3318838333       10.3270397249
  O        34.3124923989       18.2479842688        9.3268117916
  O        31.6628092117       18.3146331097       10.0794180328
  O        30.3202994359       15.1557856934        8.0739070736
  O        28.5539656606       21.0312211655        6.8973383456
  O        28.5089910183       20.9635095335        9.3999736902
  O        27.4575630655       18.6788998686       10.6570096522
  O        26.6940193855       16.9289617618        9.4116136752
  O        13.1480937590       18.6932019334       10.5870388891
  O        13.9189740506       16.9161838173        9.4046663551
  O        50.5960055631       19.3502738226        8.0203836819
  O        47.6826516011       16.3272278204       10.4170827967
  O        46.9529397224       18.1764333510        9.3230007652
  O        11.0696387200       17.0155865806        9.4896302565
  O        47.6764086268       16.3357280161        5.6527935076
  O        46.9251342504       18.2355096222        6.6629495821
  O        49.5684383224       18.3177441808        5.9820791669
  O        10.3185894155       15.1001536970        7.9971051206
  O        52.6707132081       21.0278907765        9.2418119798
  O        12.1467860092       20.8912338460        6.6732609344
  O        13.1067386751       18.6140914441        5.3257970107
  O        13.9568529347       16.9873315007        6.6648735403
  O        29.9916321267       14.4398096175       10.7213232443
  O        28.0873214969       14.6554215111        9.4899928151
  O        32.1374918942       16.8640770904        8.0072803291
  O        30.9638649173       20.9665957277       10.3256003948
  O        32.9618087912       20.5912572385        9.3216847509
  O        29.5667705446       17.0778581662        9.5728261891
  O        30.8829568595       20.8195845906        5.5712531460
  O        32.8694709280       20.5899622624        6.6568703913
  O        31.6735780445       18.2480653937        5.9100258659
  O        28.2829804790       18.6813815948        8.0640570939
  O        32.4937999889       14.2081884098        9.3190536557
  O        32.4043736487       14.2123937344        6.8223719679
  O        29.9033305576       14.4375612749        5.4908030641
  O        28.0085787206       14.6469469603        6.7354584411
  O        17.8892074490        1.9665758338       10.6628250565
  O        18.9561686592        3.5271046822        9.4080110396
  O        39.1685701401       34.1386062706        7.9971396350
  O        43.2801313335       33.0589705043       10.3316862301
  O        42.0343089633       31.5065685948        9.2415813263
  O        20.3177050947        1.0366754679        9.4803315153
  O        43.2760543223       33.1826596499        5.5749269470
  O        42.0052195225       31.5841542681        6.5829650223
  O        40.5788691569       33.7748049540        5.9358405447
  O        22.3673480239        1.3846038053        7.9979860415
  O        36.6727954083       35.0997256817        9.2333280777
  O        16.4457028485        0.0640984526        6.6681916162
  O        17.9365006043        2.0432827759        5.3264068772
  O        18.9189310962        3.5930741399        6.6659798422
  O        29.6103660378       18.9119547329        3.9059719103
  O        29.8266439846       19.1234676714       11.9071755441
  O        31.2908557228       16.2610039635        4.0681267555
  O        31.4306383226       16.3424754245       11.9058403258
  O        32.2612392432       16.4827499294        1.2279828215
  O        30.1935784236       15.8115104601       14.1734963132
  O        31.5620432633       18.0257913863       14.4140400109
  O        30.8378000378       19.2627921021        1.5068470492
  O        28.9637836116       18.6801348614       14.3091637762
  O        39.4568407010       35.2437649499        4.0019678819
  O        19.1415881632        0.0045508246       11.9905141851
  O        41.9695741113       35.1728161190        4.0872522478
  O        21.6913098719       -0.0692320070       11.8958894806
  O        51.3649026224       18.6142963910        4.0053618258
  O        10.7510849713       18.7472007938       11.9049601308
  O        50.0797882386       16.4128675896        4.0916765005
  O         9.5243916509       16.4830507425       11.9911645361
 Zr         9.2966846042       16.0526240090        6.1824344028
 Zr        49.8363629626       16.0067748503        9.7464743640
 Zr        22.0734663261        0.0303527668        6.1889631881
 Zr        42.4612124804       35.1539388269        9.8010409621
 Zr        29.6207374094       19.0912895458        6.3094880642
 Zr        29.5817998708       19.1877927085        9.8360091747
 Zr        11.0376920136       19.0520401341        9.8277292884
 Zr        11.0436409198       19.1548704527        6.2510543455
 Zr        31.3708172310       16.0903911970        9.8248626167
 Zr        31.3940656209       16.0051362423        6.2269816843
 Zr        18.6014434595       -0.0012043147        9.7634686041
 Zr        18.5067917581       -0.0077141782        6.2136224390
 Zr        12.3017043255       16.3234525577        7.9902109526
 Zr        48.6162633581       18.8330382492        8.0096233261
 Zr        20.3153632605        2.4738195609        7.9909237496
 Zr        40.6434033484       32.6871385111        7.9778821186
 Zr        28.3469284438       16.3486753646        8.0947650406
 Zr        32.6505553579       18.8239086345        8.0093540077
  H        28.6718070057       18.6836937330        3.7439246213
