     566
 i =      132, E =     -4712.2354770146
  C        11.8590112750       14.0535462020        5.7415469188
  C        12.4564759556       12.8906078095        5.0234361379
  C        11.7047088258       12.1715442174        4.0818943704
  C        12.2810847181       11.1093522740        3.3895504317
  C        13.6217315254       10.7396571930        3.6171430122
  C        14.3549531154       11.4433455133        4.5904983726
  C        13.7820894300       12.5083348875        5.2820196110
  C        14.2612384110        9.6490097060        2.8436761208
  C        14.2563242442        9.6568626847        1.4219702354
  C        13.7430768057       10.7589595546        0.6680826310
  C        49.1271180391       21.2329895764        5.8797009191
  C        48.5504898643       22.4010593462        5.1526872839
  C        49.3003560093       23.0680462539        4.1713368772
  C        48.7334733587       24.1072422022        3.4381594950
  C        47.4031338561       24.5093654419        3.6671557096
  C        46.6724127957       23.8608969326        4.6811154408
  C        47.2348088997       22.8159513332        5.4104471831
  C        46.7728139379       25.5870313055        2.8698859345
  C        46.7616050193       25.5573439369        1.4481165657
  C        47.2614841147       24.4422632275        0.7045640965
  C        14.8602735627        8.5705550105        0.7086585599
  C        14.8922264719        8.5971503327        3.5202803109
  C        49.1131965303       21.2033915059       10.1453783733
  C        48.5278544381       22.3648333785       10.8724483326
  C        49.2669791651       23.0252951287       11.8656188895
  C        48.6907046813       24.0598949178       12.5970666414
  C        47.3604122571       24.4569768942       12.3586225303
  C        46.6401772669       23.8124142121       11.3347352649
  C        47.2136695110       22.7764709962       10.6029499674
  C        46.7219223896       25.5318851141       13.1497132567
  C        46.7336146918       25.5281531806       14.5714272677
  C        47.2491197910       24.4289656778       15.3278010483
  C        40.6169294032       17.0656605742       15.3211042271
  C        40.6307301408       17.1086432502       12.5107291553
  C        11.8830844056       14.0866217655       10.2854445762
  C        12.4724275173       12.9109277853       10.9896763885
  C        11.7149657983       12.1777736665       11.9158962067
  C        12.2815561512       11.0953191855       12.5842876799
  C        13.6203801854       10.7215442509       12.3524627204
  C        14.3582890287       11.4370509252       11.3915487209
  C        13.7928614300       12.5182153483       10.7188473552
  C        14.2539237406        9.6247301682       13.1228457700
  C        14.2524708816        9.6445914567       14.5446956101
  C        13.7425363325       10.7534754047       15.2918257728
  C        22.5134174817        3.2451157805        5.7532572639
  C        23.2303254938        4.3497957502        5.0548344621
  C        24.2327761309        4.0689576683        4.1144252346
  C        24.8631038588        5.1074504135        3.4335862436
  C        24.5065494693        6.4498220436        3.6717174797
  C        23.5319428631        6.7221711407        4.6493157009
  C        22.8976211025        5.6855905209        5.3292740735
  C        25.1142567570        7.5562391587        2.8966178277
  C        25.0963228876        7.5454887300        1.4745435729
  C        24.4048976270        6.5407209749        0.7259038454
  C        38.2967799154       31.9266899343        5.8516448814
  C        37.5522377238       30.8370888266        5.1514468184
  C        36.5836616646       31.1436857289        4.1827542403
  C        35.9499089139       30.1262056313        3.4736822304
  C        36.2681486187       28.7737244956        3.7082743062
  C        37.2060667124       28.4745343458        4.7149344731
  C        37.8436552477       29.4911517715        5.4237592634
  C        35.6555646125       27.6864080040        2.9071438435
  C        35.6966542830       27.7036950346        1.4848119326
  C        36.4121046390       28.7047981907        0.7547096872
  C        25.7161510259        8.6183533902        0.7560039224
  C        25.7019438587        8.6356197616        3.5686145440
  C        38.3315079580       31.9618223461       10.1607740405
  C        37.6160583049       30.8894814249       10.9121488073
  C        36.6823311526       31.2002340513       11.9127826023
  C        36.0721728211       30.1841219991       12.6463052232
  C        36.3809690801       28.8305372837       12.4035823360
  C        37.2968483593       28.5296824664       11.3765972228
  C        37.9085580351       29.5423165098       10.6440189979
  C        35.7629287354       27.7325626344       13.1832631010
  C        35.7513952454       27.7275298932       14.6057934614
  C        36.4367372859       28.7171804411       15.3781178123
  C        46.1355641053       26.6207383311       15.2816190337
  C        46.0879391773       26.5802795534       12.4737215603
  C        22.4659153204        3.2573301321       10.2591146362
  C        23.1697504308        4.3634495922       10.9796577261
  C        24.1758878863        4.0722130712       11.9152332908
  C        24.8135630180        5.0980063171       12.6098719511
  C        24.4667051658        6.4469537354       12.3934206617
  C        23.4839278368        6.7313721177       11.4257715045
  C        22.8418426509        5.7058919330       10.7311559335
  C        25.1031023776        7.5425589518       13.1700264768
  C        25.0914369472        7.5375566675       14.5936403834
  C        24.4000209126        6.5383617394       15.3487589662
  C        26.6787560615       17.8771608443        5.7275610565
  C        25.3782660146       17.9658376532        4.9981338656
  C        25.1370688133       18.9461273470        4.0227270572
  C        23.9088686748       18.9941138553        3.3622679020
  C        22.8875998556       18.0636372206        3.6488366899
  C        23.1286317643       17.1075200011        4.6538808115
  C        24.3531857637       17.0566317775        5.3147783719
  C        21.6049364068       18.0520738571        2.8985436123
  C        21.5951290132       18.0047830858        1.4763270698
  C        22.7950428014       17.8566454788        0.7113472605
  C        34.4450698949       17.1893427899        5.9543771734
  C        35.7352682171       17.1272500137        5.2093439718
  C        35.9428980253       16.1368395666        4.2356640395
  C        37.1173463866       16.1184784946        3.4880683421
  C        38.1191643305       17.0866724375        3.6948931381
  C        37.9156146047       18.0569992184        4.6952259870
  C        36.7374748854       18.0828516662        5.4383061496
  C        39.3703969956       17.0879502514        2.9008265492
  C        39.3626142237       17.0818453299        1.4784479988
  C        38.1527927006       17.1802754150        0.7219877822
  C        20.3438965266       18.0120527810        0.7753890786
  C        20.3824154992       18.0559588427        3.5883609801
  C        34.4241290386       17.2118209295       10.2285666313
  C        35.7306601267       17.1228368445       10.9370953410
  C        35.9553556436       16.1273084573       11.9010583509
  C        37.1503235861       16.0984763464       12.6144687340
  C        38.1496802120       17.0649066841       12.3865599349
  C        37.9321245900       18.0330688043       11.3879354045
  C        36.7369546613       18.0659500275       10.6747877452
  C        39.4004769543       17.0808830612       13.1779598852
  C        39.3781980652       17.0799100939       14.5998709991
  C        38.1605425100       17.1785467353       15.3448865250
  C        35.1078061383       26.6508088689       15.3022768126
  C        35.1807958135       26.6616727332       12.4927797130
  C        26.5829249301       17.7981444275       10.3580660322
  C        25.2628092311       17.8581570939       11.0502884827
  C        24.9988500813       18.8711882294       11.9847959319
  C        23.7752808434       18.9117830749       12.6468291201
  C        22.7868164736       17.9370180016       12.4025037113
  C        23.0445854759       16.9504462342       11.4332623327
  C        24.2675311549       16.9100763965       10.7658397256
  C        21.5237744065       17.9285043474       13.1773006309
  C        21.5537641950       17.9396791865       14.5989976185
  C        22.7749722178       17.8253299671       15.3357853758
  C        14.0460127733       17.8280448880       10.2916166872
  C        15.3469586624       17.8852595504       11.0234565088
  C        15.6015465056       18.8960530083       11.9638489813
  C        16.8084339655       18.9226978004       12.6601499028
  C        17.7957115461       17.9409344046       12.4395742258
  C        17.5442361477       16.9515392957       11.4699090035
  C        16.3371087752       16.9210060190       10.7741291464
  C        19.0672267492       17.9361281240       13.2054457219
  C        19.0727721454       17.9574770176       14.6282207797
  C        17.8701378580       17.8706648905       15.3976967707
  C        46.8019578996       17.2178276177       10.1590934979
  C        45.5094840571       17.1505203921       10.9040072516
  C        45.3045029825       16.1670414491       11.8844725084
  C        44.1215856294       16.1398673390       12.6191210656
  C        43.1111883165       17.0962974445       12.3972135955
  C        43.3135552318       18.0599152558       11.3902936718
  C        44.4973708191       18.0906798155       10.6560990466
  C        41.8567630508       17.0965948359       13.1870664630
  C        41.8628932749       17.0892393471       14.6097954454
  C        43.0721323311       17.1888683305       15.3674193636
  C        20.3229903995       17.9799792119       15.3301914066
  C        20.2883394333       17.9068600893       12.5172698436
  C        46.7846485521       17.2310754207        5.8885115539
  C        45.4810696730       17.1230110153        5.1723474362
  C        45.2616660294       16.1184951481        4.2174754956
  C        44.0730381057       16.0865482042        3.4921495130
  C        43.0737109697       17.0562144292        3.7041958431
  C        43.2839990386       18.0316976808        4.6967256358
  C        44.4737228114       18.0696713722        5.4174415621
  C        41.8254838699       17.0699514529        2.9092221161
  C        41.8469917969       17.0738565699        1.4879347401
  C        43.0645964906       17.1787198293        0.7442891120
  C        46.1534424277       26.6371686540        0.7263927541
  C        46.1629465620       26.6562063630        3.5360407166
  C        14.0525486055       17.8400586585        5.7122949173
  C        15.3806696793       17.9373800645        5.0325101303
  C        15.6477367943       18.9665351759        4.1162234910
  C        16.8794995523       19.0279316350        3.4668424455
  C        17.8763822677       18.0598477109        3.7050407860
  C        17.6166016178       17.0605562673        4.6613928267
  C        16.3866558783       16.9989465457        5.3153796015
  C        19.1441346795       18.0530819133        2.9301939195
  C        19.1126485848       18.0167158765        1.5078404822
  C        17.8895709508       17.8969148110        0.7738816299
  C        28.7909657109       14.1187360799       10.4008544861
  C        28.2014367353       12.9372526461       11.0894061141
  C        28.9192392735       12.2332259329       12.0684574336
  C        28.3327836128       11.1483559414       12.7164625195
  C        27.0155362270       10.7451788826       12.4136301349
  C        26.3228831610       11.4315918123       11.3994330903
  C        26.9061294760       12.5143820926       10.7477781144
  C        26.3512092132        9.6602466063       13.1720785343
  C        26.3252248106        9.6912194165       14.5934325279
  C        26.8045741053       10.8137833205       15.3403330181
  C        32.1687133908       21.2687965753       10.1042451274
  C        32.7691095218       22.4310779367       10.8265521585
  C        32.0162960516       23.1129807842       11.7958297597
  C        32.5870999041       24.1427597560       12.5376216645
  C        33.9276457006       24.5225646105       12.3320506260
  C        34.6641496128       23.8600465492       11.3312700043
  C        34.0960276186       22.8228264361       10.5925254645
  C        34.5522570740       25.5940475270       13.1435711984
  C        34.5224842046       25.5684275027       14.5658109217
  C        33.9991433926       24.4565094801       15.2980596645
  C        25.7196146409        8.6096699715       15.3104875801
  C        25.7222445182        8.6047546026       12.4967584342
  C        32.0839633753       21.1569228733        5.8332192259
  C        32.6397818241       22.3285414301        5.0966058420
  C        31.9039811861       22.9824463712        4.0955120192
  C        32.4705306245       24.0360751935        3.3797148218
  C        33.7873552667       24.4659209551        3.6415257507
  C        34.5020616906       23.8271660209        4.6738410024
  C        33.9408857772       22.7723467996        5.3872939929
  C        34.4270681135       25.5568679928        2.8674648633
  C        34.4571659286       25.5500832526        1.4446372155
  C        33.9676461178       24.4480193053        0.6747655061
  C        40.6082908696       17.0622304705        0.7665436023
  C        40.5959309024       17.0981413095        3.5768814623
  C        28.7125412090       14.0944543325        5.8211314864
  C        28.1024224163       12.9458846487        5.0918922330
  C        28.8324769601       12.2794706677        4.0947167827
  C        28.2606255242       11.2179251675        3.3986604316
  C        26.9420471015       10.7979468012        3.6687422936
  C        26.2301566312       11.4543086997        4.6913180293
  C        26.8004864950       12.5153733643        5.3925345295
  C        26.3094662518        9.7030824306        2.8937670555
  C        26.3046974325        9.7136322153        1.4709254091
  C        26.7923286162       10.8263115336        0.7161980356
  C        18.1355332949        3.1810534672       10.3171709539
  C        17.4062651566        4.2783155434       11.0157302863
  C        16.3901371473        4.0000182343       11.9428306483
  C        15.7424681346        5.0400242228       12.6063406090
  C        16.0947512657        6.3837145958       12.3670035353
  C        17.0846096567        6.6531874899       11.4037178134
  C        17.7336742995        5.6158171770       10.7386586706
  C        15.4703908400        7.4914018208       13.1300958306
  C        15.4855042383        7.4906088520       14.5518225052
  C        16.1870520448        6.4969631609       15.3049601849
  C        42.9457165764       31.8596138235       10.0728446741
  C        43.6460919070       30.7718531416       10.8168666658
  C        44.5914085754       31.0932212815       11.8031145965
  C        45.1971413723       30.0877138621       12.5508382926
  C        44.8709665399       28.7346185048       12.3358350545
  C        43.9454008323       28.4202282279       11.3223905725
  C        43.3365784535       29.4253384423       10.5742935490
  C        45.4885898001       27.6553133745       13.1390261490
  C        45.4927503405       27.6808410102       14.5607361956
  C        44.8056732079       28.6888488626       15.3074226113
  C        14.8564813363        8.5630585338       15.2642167995
  C        14.8752366281        8.5632563937       12.4515299884
  C        42.9465112938       31.9617537413        5.8090382914
  C        43.6918678954       30.8855344074        5.0956276448
  C        44.6564571441       31.1914488996        4.1233360961
  C        45.2780552910       30.1718731992        3.4056262234
  C        44.9543999741       28.8215444914        3.6433190149
  C        44.0209509696       28.5238730811        4.6541263408
  C        43.3926133336       29.5406302521        5.3662786628
  C        45.5634280784       27.7241178931        2.8580408961
  C        45.5335007193       27.7173185016        1.4367339975
  C        44.8270651003       28.7074980544        0.6838175710
  C        35.0770791897       26.6405845697        0.7480756963
  C        35.0382320985       26.6119293991        3.5589416814
  C        18.1489738236        3.2471057169        5.7067004791
  C        17.4305107793        4.3439776724        4.9973241886
  C        16.4149781546        4.0527267279        4.0740924477
  C        15.7666817725        5.0833472522        3.3986779375
  C        16.1216416889        6.4285581203        3.6210800347
  C        17.1134524555        6.7119406640        4.5778891996
  C        17.7611106500        5.6830265431        5.2576953621
  C        15.4909929510        7.5242107631        2.8486496411
  C        15.4966300350        7.5075043480        1.4275080441
  C        16.1933343396        6.5057877845        0.6807772443
  H        10.6725334910       12.4655419385        3.9049514544
  H        11.6947653716       10.5507757598        2.6631095048
  H        15.3920679054       11.1689468777        4.7720656386
  H        14.3517375359       13.0717052358        6.0172032919
  H        13.3761172221       11.6311045446        1.2013960586
  H        50.3229060325       22.7476912985        3.9862587141
  H        49.3199041806       24.6222459033        2.6803607021
  H        45.6431419468       24.1621580975        4.8647255938
  H        46.6639620794       22.2911019896        6.1729333666
  H        47.6301634742       23.5759152716        1.2461951994
  H        14.8728748362        8.5885039472        4.6085931248
  H        50.2869337734       22.7022515253       12.0607003835
  H        49.2690782726       24.5751595955       13.3607140044
  H        45.6109357149       24.1100265950       11.1453687280
  H        46.6529797233       22.2546303729        9.8310717701
  H        47.6079702151       23.5518776803       14.7969045494
  H        40.6349943520       17.0851955546       11.4225960002
  H        48.6872455246       14.0949780021        7.8000231320
  H        10.6814900907       12.4667948389       12.0933231601
  H        11.6897826544       10.5249313974       13.2970024341
  H        15.3937308415       11.1592048857       11.2056016720
  H        14.3652567138       13.0874837690        9.9902784310
  H        13.3757865189       11.6221543177       14.7532448914
  H        47.9301693717       14.2187423005        9.7109194747
  H        47.7800751510       14.3738913869        6.4955084085
  H        49.0837392995       18.5521299968       10.8673530512
  H        10.4165693926       14.1343955113        7.9988509503
  H        24.4961439172        3.0302943377        3.9273620756
  H        25.6410283419        4.8885300198        2.7053407896
  H        23.2486750062        7.7552498205        4.8399375127
  H        22.1235845496        5.8875723510        6.0656490748
  H        23.8454438127        5.7811591569        1.2641262717
  H        36.3518056073       32.1878573199        3.9863255788
  H        35.2005123915       30.3713847806        2.7241932264
  H        37.4617737846       27.4343556774        4.9063185011
  H        38.5927846934       29.2641704982        6.1787842124
  H        36.9731194399       29.4532367724        1.3066655257
  H        25.7324342765        8.6189440531        4.6565799727
  H        36.4535942598       32.2447510219       12.1120900145
  H        35.3408253540       30.4321497458       13.4123935385
  H        37.5496132529       27.4893140613       11.1829145515
  H        38.6358242518       29.3137195408        9.8687258773
  H        37.0175365941       29.4748618178       14.8598274822
  H        46.1094819701       26.5878299992       11.3856890833
  H        44.6683939677       35.1162014848        7.8139830791
  H        24.4494311350        3.0325104927       12.0803356864
  H        25.5964928073        4.8622338567       13.3275765963
  H        23.2028370794        7.7674169097       11.2478372162
  H        22.0679463044        5.9258430517        9.9992571095
  H        23.8362954998        5.7776931944       14.8164928098
  H        44.9542153722       34.3907242988        9.6953529436
  H        44.9019147034       34.2069685022        6.4905626001
  H        40.6665835753       33.2097277536       10.8533254965
  H        23.1510142340        1.9580627910        8.0055243699
  H        25.9204258863       19.6652699394        3.7936093269
  H        23.7286557280       19.7618022062        2.6127919927
  H        22.3558892875       16.3774055566        4.8856300377
  H        24.5449967640       16.3038215009        6.0752159190
  H        23.7383128945       17.7327777612        1.2351496975
  H        35.1694154334       15.3907194214        4.0689622043
  H        37.2730655479       15.3440743034        2.7401107311
  H        38.6803654391       18.8132084378        4.8601127674
  H        36.5652292446       18.8484886073        6.1912729450
  H        37.2111134562       17.2898854105        1.2525053465
  H        20.3954438765       18.1072446096        4.6758000024
  H        35.1789415969       15.3890249658       12.0881658103
  H        37.3218293292       15.3233158671       13.3581143916
  H        38.6969530177       18.7852649390       11.2060914427
  H        36.5500713104       18.8310583483        9.9249695767
  H        37.2243435708       17.2878150735       14.8051109942
  H        35.1695516162       26.6868907256       11.4047804199
  H        28.5029996760       21.0891942485        8.0076222758
  H        25.7653762543       19.6191161341       12.1744676546
  H        23.5712066961       19.7016333129       13.3664541658
  H        22.2906911340       16.1905411390       11.2379055056
  H        24.4811122615       16.1355918631       10.0330450420
  H        23.7026099955       17.6779507262       14.7908626108
  H        29.0202608598       21.7082027119        9.7517752764
  H        29.0939646276       21.7809386878        6.6104073483
  H        32.0418708514       18.6309889651       10.9892273185
  H        27.3525902783       19.0674396001        8.0695140383
  H        14.8436326173       19.6577962788       12.1324026983
  H        17.0023087519       19.7147166769       13.3803273116
  H        18.2949952514       16.1844855694       11.2910915184
  H        16.1333200584       16.1450345298       10.0400088915
  H        16.9245256420       17.7485315393       14.8774155199
  H        46.0895724879       15.4363309761       12.0643890757
  H        43.9658606911       15.3684052828       13.3701045226
  H        42.5434071018       18.8078069209       11.2129516845
  H        44.6673004058       18.8495134911        9.8957427470
  H        44.0127364279       17.3068352079       14.8370241901
  H        20.2762499944       17.9204017834       11.4288476099
  H        46.0382771230       15.3767954554        4.0451721019
  H        43.9060625687       15.3063636213        2.7526452062
  H        42.5180969719       18.7854982192        4.8669308185
  H        44.6566354219       18.8413681556        6.1611911705
  H        43.9995960169       17.2877755751        1.2862028933
  H        46.2000382960       26.6828972721        4.6234758667
  H        52.7411619047       21.0627455057        8.1946916503
  H        14.8787945442       19.7125367855        3.9276570609
  H        17.0804605103       19.8289995865        2.7585994357
  H        18.3752006010       16.3051548183        4.8561449508
  H        16.1753138296       16.2127676577        6.0363680305
  H        16.9586950421       17.7948618096        1.3235434470
  H        52.3222866498       21.6731779929        6.2943419141
  H        52.0133267834       21.7020528865        9.4957850182
  H        49.0684341772       18.6074605883        5.2039798254
  H        13.2479818899       19.0168193436        7.9787270095
  H        29.9311121949       12.5509156909       12.3124896935
  H        28.8919707881       10.6015495120       13.4725505604
  H        25.3051028171       11.1324649117       11.1575734140
  H        26.3663009046       13.0644679558        9.9810045853
  H        27.1537380526       11.6895906597       14.8020075636
  H        30.9865595762       22.8085159402       11.9657123367
  H        31.9961861216       24.6671828351       13.2853867581
  H        35.7017959027       24.1424517498       11.1651892331
  H        34.6730141201       22.2868585776        9.8423413365
  H        33.6471520819       23.5880274557       14.7484319044
  H        25.7584872877        8.5837408010       11.4089254076
  H        30.8914919913       22.6479001963        3.8812861032
  H        31.8909651698       24.5415150001        2.6102987811
  H        35.5206665785       24.1455822051        4.8856316756
  H        34.5016696397       22.2610641148        6.1659774830
  H        33.5926060457       23.5715092474        1.1952545162
  H        40.5920826831       17.0740559825        4.6649592957
  H        32.5084712938       14.1569357365        8.2515716042
  H        29.8457205938       12.6125618617        3.8802643247
  H        28.8359779314       10.6977172783        2.6360352750
  H        25.2096727133       11.1447635224        4.9074565372
  H        26.2449103520       13.0365509424        6.1686663424
  H        27.1315692624       11.7114907463        1.2463678742
  H        33.2924229597       14.1851652402        6.4428524542
  H        33.4025200035       14.3676169019        9.6195766434
  H        32.1074134931       18.5327562627        5.1404492712
  H        30.1823509471       14.1619777800        8.0979061730
  H        16.1177756338        2.9635485905       12.1289664927
  H        14.9527229145        4.8207021788       13.3216923214
  H        17.3674831505        7.6860118459       11.2109737003
  H        18.5161547788        5.8184792557       10.0112865122
  H        16.7536706596        5.7396844930       14.7714347515
  H        44.8275385126       32.1403284293       11.9773820224
  H        45.9368815619       30.3415834509       13.3068694303
  H        43.6829881659       27.3781202896       11.1520821109
  H        42.6002727065       29.1899811543        9.8093334499
  H        44.2303457107       29.4366652642       14.7691553958
  H        14.8517085369        8.5466290445       11.3633026948
  H        44.8999404642       32.2341373958        3.9318346231
  H        46.0249787772       30.4131724148        2.6524251234
  H        43.7641494120       27.4841256760        4.8458031241
  H        42.6461494835       29.3178522617        6.1247661134
  H        44.2686831263       29.4704469585        1.2184479592
  H        34.9892981085       26.6209225606        4.6462783287
  H        36.6054215082       35.1341503612        8.1805649729
  H        16.1436493938        3.0131740052        3.9046381012
  H        14.9741097516        4.8565296336        2.6888604478
  H        17.3973677931        7.7473638766        4.7543968755
  H        18.5443413083        5.8935223870        5.9820670090
  H        16.7648876888        5.7556191075        1.2191914111
  H        36.2795358154       34.4819974490        6.2730557444
  H        36.3815175088       34.2088816293        9.4992467933
  H        40.5791576673       33.2025236191        5.1538570841
  H        17.4717152382        1.9477451260        7.9741163393
  H        29.3204680850       19.6338255647       12.5568022930
  H        32.3859728606       16.1154205378        3.7814601511
  H        32.1987164114       16.6749497949       12.4911647721
  H        28.2244044135       18.2317693540       14.5671610909
  H        29.8256530245       14.6953374169       14.3859683431
  H        32.3845925770       17.2424986601        1.0798271511
  H        18.8535561318        0.8688749671       12.3354556659
  H        40.5282358640       35.2288809352        3.9519420923
  H        42.3247283432       34.4195766440        3.5900900462
  H        22.0876207980        0.6921501389       12.3515509341
  H        11.5968842716       18.7129012383       12.3823153558
  H        52.2650877049       18.4310672901        3.6769611245
  H        49.2553356866       16.4765303519        3.5843598267
  H        10.1502280689       15.7981726175       12.2927491721
  H        50.8503122647       17.6924302709        3.9541913348
  H        10.0462526057       17.3946397299       12.0519394199
  H        20.2149028855        0.0022409598       12.0419868331
  H        39.1838659892       36.1244512282        3.6863709764
 Ni        30.5280108405       16.5871678349        2.4134484424
 Ni        31.4146115366       15.5392083609       -0.0036643377
 Ni        30.0118518183       17.2858668718       -0.1683848315
 Ni        30.1412140111       17.5978315035       13.4062100054
  O        10.6501152065       14.3651340790        5.4859488586
  O        12.6133223933       14.6577294645        6.5839523895
  O        49.1477907689       16.8458758209        7.9897665345
  O        50.3504187879       20.9353652594        5.6479211709
  O        48.3486053493       20.5931806146        6.6659051096
  O        11.0520700855       17.0535406117        6.5009230886
  O        50.3209377084       20.8816094267       10.4067958753
  O        48.3467258276       20.5866533926        9.3270859810
  O        49.5436235716       18.2483093189       10.0681227747
  O        12.3596965890       18.6245136648        7.9994620428
  O        48.6932739807       14.1486158321        6.7513240723
  O         8.2098829846       14.2105837493        9.3226103776
  O        10.7353250362       14.5067957783       10.6642501219
  O        12.5718595035       14.5829988623        9.3284115136
  O        22.8447075270        2.0433841623        5.4872298337
  O        21.6061880917        3.5926480435        6.5895093768
  O        42.0581008117       34.1374761666        7.9789767990
  O        37.9812998744       33.1356872290        5.5717933842
  O        39.2167582156       31.5745262679        6.6650250135
  O        20.3085681068        1.0400819410        6.5025252583
  O        38.0249279264       33.1858258017       10.4155767624
  O        39.2184862158       31.5831685136        9.3273350227
  O        40.6522869469       33.7693991030       10.0600243975
  O        18.2562198924        1.3763071051        7.9967854581
  O        44.6221622627       35.1005960783        6.7588023320
  O        24.2053958484        0.0000109946        9.3207331074
  O        22.7536358054        2.0577096149       10.5844621338
  O        21.6262833244        3.5980822685        9.3469746065
  O        27.6336712919       18.6885975504        5.4101883101
  O        26.7387515032       17.0028138608        6.6560836505
  O        30.6521041893       19.4045165313        8.0802701472
  O        33.5887875656       16.2694342752        5.7362352630
  O        34.2677957226       18.1813560752        6.7448366661
  O        29.5696489376       17.0636635975        6.5817387500
  O        33.5323681483       16.3317364548       10.5064821065
  O        34.2695969722       18.1749606658        9.4083248352
  O        31.6466472153       18.3171001865       10.1586232766
  O        30.2927465970       15.1267741209        8.0943724201
  O        28.5512573144       21.0330345458        6.9148278017
  O        28.5082814741       20.9550482594        9.4087564716
  O        27.4920231913       18.6102686669       10.7336557048
  O        26.6928484516       16.9288975586        9.4164301353
  O        13.1480835711       18.6932703890       10.5873183839
  O        13.9202725606       16.9165961439        9.4061418593
  O        50.5962410254       19.3500537692        8.0201190932
  O        47.6814838318       16.3274293902       10.4176378398
  O        46.9496341332       18.1757363743        9.3259186756
  O        11.0702664718       17.0151518490        9.4893194369
  O        47.6756050330       16.3358089191        5.6530062797
  O        46.9258218854       18.2359268074        6.6637353627
  O        49.5693044420       18.3176305393        5.9824614876
  O        10.3189387452       15.1002329505        7.9970962749
  O        52.6707562496       21.0278308675        9.2418102233
  O        12.1468536311       20.8911834175        6.6732773925
  O        13.1096655827       18.6141060989        5.3254308709
  O        13.9602484773       16.9885166920        6.6628992812
  O        29.9605409582       14.5108454987       10.7457624588
  O        28.0770811153       14.6569726411        9.4892056667
  O        32.0673806463       16.8578837618        8.0881236503
  O        30.9393774270       21.0161778733       10.3281965814
  O        32.9483382097       20.5920621310        9.3355579690
  O        29.5654388591       17.0793322187        9.5776537635
  O        30.8668389598       20.7999596853        5.5721205079
  O        32.8583796375       20.5794946279        6.6621944577
  O        31.6023249490       18.2446714251        5.9175953064
  O        28.2413553119       18.6767561987        8.0872660403
  O        32.4850569113       14.2177066901        9.3311132913
  O        32.4025086217       14.2110395598        6.8312274614
  O        29.8960606860       14.4394671882        5.4972059838
  O        28.0016671757       14.6490591506        6.7392540912
  O        17.8892258067        1.9666331510       10.6627529263
  O        18.9563939534        3.5271547229        9.4079850084
  O        39.1685338344       34.1386751578        7.9970615952
  O        43.2801486466       33.0589097250       10.3317173485
  O        42.0343571468       31.5064631514        9.2415559659
  O        20.3179203597        1.0370262720        9.4799959132
  O        43.2760735907       33.1826011072        5.5748675238
  O        42.0052164265       31.5841177592        6.5829461962
  O        40.5790693799       33.7752860478        5.9359359404
  O        22.3676073975        1.3851730636        7.9981978290
  O        36.6728406915       35.0997785034        9.2332374230
  O        16.4458823718        0.0641916805        6.6681964133
  O        17.9365822924        2.0434642937        5.3264475936
  O        18.9193252386        3.5931351081        6.6660821314
  O        29.8677126672       19.0513234543       12.0001707689
  O        31.4628410441       16.1204289286        4.0917585092
  O        31.2945890867       16.4092975319       12.2416645372
  O        32.1908500025       16.3430000155        1.4188283929
  O        30.8018821203       14.6534471744       14.3397142735
  O        29.1490336836       18.5299205138       14.6705866199
  O        39.4568774205       35.2437953289        4.0020009654
  O        19.1414513368        0.0044873115       11.9904909671
  O        41.9694917251       35.1727340024        4.0871793343
  O        21.6912547318       -0.0693571454       11.8959544842
  O        51.3653710866       18.6142341360        4.0054464540
  O        10.7510187177       18.7470848106       11.9048400126
  O        50.0796689632       16.4127980649        4.0918205918
  O         9.5244540389       16.4831018185       11.9911482182
 Zr         9.2976999403       16.0526012569        6.1825291845
 Zr        49.8369773873       16.0067180758        9.7464255449
 Zr        22.0734444492        0.0308199644        6.1888538292
 Zr        42.4611776372       35.1542581992        9.8012389590
 Zr        29.6105242327       19.1042148367        6.4072417704
 Zr        29.5531999409       19.1663507715        9.9343174575
 Zr        11.0384531952       19.0515921013        9.8275876655
 Zr        11.0450060302       19.1543969821        6.2506296540
 Zr        31.3184461450       16.0937784852        9.9225803228
 Zr        31.3683307635       15.9700476307        6.2458125524
 Zr        18.6015351585       -0.0008046554        9.7632309547
 Zr        18.5071149110       -0.0071028546        6.2136531835
 Zr        12.3040737899       16.3236946906        7.9896636588
 Zr        48.6168240132       18.8330317536        8.0103726523
 Zr        20.3168738018        2.4751540095        7.9913973547
 Zr        40.6434443526       32.6875165084        7.9777710563
 Zr        28.3292648818       16.3384650481        8.0831457792
 Zr        32.6245291465       18.8039472295        8.0716482411
  H        29.4533537216       16.8131845734        1.2518269280
  H        31.0095715624       15.2473973270       13.5433962761
