     566
 i =      106, E =     -4712.2253486587
  C        11.8584887710       14.0534553824        5.7415395626
  C        12.4559254633       12.8903558663        5.0232550519
  C        11.7043594612       12.1719059023        4.0811534379
  C        12.2806202666       11.1096512939        3.3887587941
  C        13.6209757985       10.7393229925        3.6168890545
  C        14.3539761535       11.4423573498        4.5908832149
  C        13.7811718043       12.5073452452        5.2824495406
  C        14.2604591655        9.6486499766        2.8434749762
  C        14.2557974835        9.6565543257        1.4217645122
  C        13.7427063362       10.7586902390        0.6678244320
  C        49.1264642719       21.2334590823        5.8797339947
  C        48.5495657034       22.4012057757        5.1525816372
  C        49.2997385559       23.0688418389        4.1718956091
  C        48.7327451892       24.1078961574        3.4386557715
  C        47.4020354377       24.5091487953        3.6669776672
  C        46.6708802438       23.8598836763        4.6800817621
  C        47.2333833237       22.8150273840        5.4094650903
  C        46.7718602918       25.5868646246        2.8696973792
  C        46.7610286701       25.5573314213        1.4479376293
  C        47.2609361437       24.4422084818        0.7044844070
  C        14.8596256434        8.5701442285        0.7085052819
  C        14.8911318076        8.5966245654        3.5201126624
  C        49.1129016390       21.2035160353       10.1453252693
  C        48.5274287714       22.3647202830       10.8725522216
  C        49.2667104149       23.0256979672       11.8652562515
  C        48.6902679350       24.0601783421       12.5967109078
  C        47.3597161743       24.4566091893       12.3586689890
  C        46.6392071753       23.8113696605       11.3354326234
  C        47.2128610778       22.7755231594       10.6036500027
  C        46.7212860278       25.5316037960       13.1496461212
  C        46.7331930687       25.5280794622       14.5713437896
  C        47.2486381247       24.4288730457       15.3277221671
  C        40.6303022639       17.1159229085       15.3364987601
  C        40.6577945708       17.1839001240       12.5280707618
  C        11.8824501510       14.0863801893       10.2853734683
  C        12.4714833113       12.9102001595       10.9894483310
  C        11.7140286307       12.1775654223       11.9160396322
  C        12.2803838381       11.0949870051       12.5844899434
  C        13.6189100189       10.7205263950       12.3521757705
  C        14.3567073970       11.4353723770       11.3906898439
  C        13.7915076077       12.5166559335       10.7179885674
  C        14.2524970876        9.6238097033       13.1226506645
  C        14.2515872968        9.6439775921       14.5445002349
  C        13.7419632547       10.7530449263       15.2915672737
  C        22.5122273378        3.2432433661        5.7532829320
  C        23.2297244654        4.3463005436        5.0531318855
  C        24.2263292578        4.0613122296        4.1080696680
  C        24.8572086897        5.0974717898        3.4246745664
  C        24.5068579212        6.4404674735        3.6665727015
  C        23.5382352511        6.7170725293        4.6485308092
  C        22.9027749578        5.6826107353        5.3304426312
  C        25.1157575859        7.5440185698        2.8895789081
  C        25.0852321276        7.5380975721        1.4682448589
  C        24.3789099354        6.5404552659        0.7242202688
  C        38.2970401439       31.9275402745        5.8526480809
  C        37.5536079190       30.8390595617        5.1535558268
  C        36.5862978761       31.1461279954        4.1839186227
  C        35.9543831954       30.1284452219        3.4744116520
  C        36.2741221543       28.7767690222        3.7104389098
  C        37.2101715423       28.4772070183        4.7185502679
  C        37.8459725696       29.4938511420        5.4277480742
  C        35.6642935729       27.6888273323        2.9106721571
  C        35.7034650589       27.7054225661        1.4886378338
  C        36.4138185329       28.7082424368        0.7562704690
  C        25.7085506440        8.6074106409        0.7474205200
  C        25.7171960315        8.6165756828        3.5589617740
  C        38.3303154523       31.9602834636       10.1611567710
  C        37.6139551324       30.8879265370       10.9117887945
  C        36.6799002180       31.1983677799       11.9125470583
  C        36.0694257087       30.1824217920       12.6462177616
  C        36.3774397893       28.8282674554       12.4043971521
  C        37.2929312494       28.5278151520       11.3766453988
  C        37.9050395074       29.5402492611       10.6437699386
  C        35.7614221940       27.7302697956       13.1865301959
  C        35.7523558793       27.7270194174       14.6096087023
  C        36.4355849887       28.7197906302       15.3794922772
  C        46.1352931843       26.6207899603       15.2814441305
  C        46.0872031396       26.5798500622       12.4735563856
  C        22.4595100032        3.2538299648       10.2565253033
  C        23.1526651601        4.3615283874       10.9799583989
  C        24.1569752108        4.0737401349       11.9175364313
  C        24.7847296822        5.1029724438       12.6143039620
  C        24.4272197533        6.4481011408       12.3950574329
  C        23.4456580791        6.7293429756       11.4262367045
  C        22.8134241523        5.7003103063       10.7298533613
  C        25.0593200734        7.5447599171       13.1681956396
  C        25.0565654494        7.5379119120       14.5905528815
  C        24.3633686640        6.5414817276       15.3474984654
  C        26.5610420968       17.8271286098        5.7832270079
  C        25.2627038532       17.8825559484        5.0575018316
  C        25.0177811035       18.8825319681        4.1032235170
  C        23.8103170836       18.9101547748        3.4106742344
  C        22.8155463006       17.9409485298        3.6503046869
  C        23.0562813282       16.9646981879        4.6352649893
  C        24.2649364051       16.9316664089        5.3266159465
  C        21.5501568631       17.9324886394        2.8786351526
  C        21.5586765431       17.9255694115        1.4564924644
  C        22.7680463424       17.8116798938        0.7003801139
  C        34.4408813576       17.1820213471        5.9578020900
  C        35.7287785822       17.1206291461        5.2098855315
  C        35.9162056842       16.1623671716        4.2012551322
  C        37.0917868221       16.1459202950        3.4553035795
  C        38.1131602397       17.0850510032        3.6986971565
  C        37.9276933862       18.0227898787        4.7332014759
  C        36.7493175060       18.0465554543        5.4750207577
  C        39.3659671222       17.0915590288        2.9088383676
  C        39.3649695284       17.1124070287        1.4864765689
  C        38.1604221478       17.2371214101        0.7253186272
  C        20.3146281544       17.9480538430        0.7448930598
  C        20.3241396020       17.9257809274        3.5572771538
  C        34.5099384826       17.2250763460       10.1448518779
  C        35.7986638740       17.1698578169       10.8861401922
  C        36.0151878302       16.1763362464       11.8531955823
  C        37.1921491140       16.1663160260       12.5952669107
  C        38.1823627026       17.1456805594       12.3867342501
  C        37.9713322883       18.1168384199       11.3900230995
  C        36.7901354717       18.1352674850       10.6535503253
  C        39.4248759710       17.1606403541       13.1885912539
  C        39.3956262199       17.1484639723       14.6097260028
  C        38.1748899189       17.2521575231       15.3481746193
  C        35.1144952207       26.6484939103       15.3092802784
  C        35.1803928216       26.6566245564       12.4991871262
  C        26.5592807594       17.8403102686       10.3157194429
  C        25.2421643574       17.8989505975       11.0058442851
  C        24.9772168834       18.9136163458       11.9385834674
  C        23.7628873163       18.9400379579       12.6170921269
  C        22.7841859154       17.9537986306       12.3838561800
  C        23.0408329447       16.9669429417       11.4146107373
  C        24.2567535407       16.9362560077       10.7360186518
  C        21.5228066770       17.9364952245       13.1584437027
  C        21.5442825996       17.9282557506       14.5796573127
  C        22.7611559620       17.8142455468       15.3238596742
  C        14.0446056185       17.8319415154       10.2837690395
  C        15.3508477597       17.8969234604       11.0012984707
  C        15.6093581108       18.9118540270       11.9351742073
  C        16.8199927107       18.9396861053       12.6235210548
  C        17.8026182691       17.9552554309       12.3982646758
  C        17.5497698903       16.9652372546       11.4307350185
  C        16.3386727299       16.9331502926       10.7436990097
  C        19.0691604188       17.9418644237       13.1676381411
  C        19.0628570268       17.9377195380       14.5891425435
  C        17.8523129314       17.8367957218       15.3442709395
  C        46.8052365980       17.2216710761       10.1621115801
  C        45.5194850107       17.1673558994       10.9149393240
  C        45.3140411381       16.1924957741       11.9035992345
  C        44.1361224979       16.1809577729       12.6458690839
  C        43.1330322512       17.1444486837       12.4220209140
  C        43.3366832247       18.1001949181       11.4079671557
  C        44.5151290311       18.1155781132       10.6665124969
  C        41.8796730680       17.1560054050       13.2102223106
  C        41.8799056051       17.1369637885       14.6322365441
  C        43.0861267826       17.2222278098       15.3954541345
  C        20.3070581558       17.9480673652       15.3006665136
  C        20.2935342059       17.9223182697       12.4881711497
  C        46.7832197695       17.2276119983        5.8932072663
  C        45.4762735852       17.1120478238        5.1873527026
  C        45.2597725628       16.1118760492        4.2272011663
  C        44.0693279027       16.0780610051        3.5055474325
  C        43.0655099176       17.0408296364        3.7274631484
  C        43.2710099499       18.0079638096        4.7291657768
  C        44.4629220280       18.0487147146        5.4455199269
  C        41.8208509970       17.0623303114        2.9282935744
  C        41.8499300642       17.0871747145        1.5075381623
  C        43.0717809029       17.1965302989        0.7718804996
  C        46.1530956912       26.6372488363        0.7261885179
  C        46.1618350940       26.6559194481        3.5358332037
  C        14.0405089912       17.8279269379        5.7056425197
  C        15.3549859145       17.8959120044        5.0044276269
  C        15.6266760886       18.9185733027        4.0836263876
  C        16.8509295593       18.9550750092        3.4208048752
  C        17.8287195264       17.9677715623        3.6541115070
  C        17.5624776751       16.9705851042        4.6095765527
  C        16.3404559631       16.9339647379        5.2764076235
  C        19.0953141490       17.9494749970        2.8862273331
  C        19.0767364217       17.9400413809        1.4650615434
  C        17.8591231090       17.8377356236        0.7204880161
  C        28.8304767573       14.0390555657       10.3516641278
  C        28.2101202876       12.8719742795       11.0354405930
  C        28.9311701930       12.1388260580       11.9904197696
  C        28.3253049066       11.0787690453       12.6586301643
  C        26.9864734717       10.7261399078       12.3934598484
  C        26.2878830508       11.4382750293       11.4017504989
  C        26.8893769979       12.5019420277       10.7346194269
  C        26.3148201623        9.6541559402       13.1616747862
  C        26.3079356148        9.6806947565       14.5826321591
  C        26.8149780532       10.7927722323       15.3265972336
  C        32.1925326135       21.2371124006       10.1505825043
  C        32.7826890353       22.3986773495       10.8726810416
  C        32.0323978423       23.0749189535       11.8478899869
  C        32.5997388517       24.1168397483       12.5745655904
  C        33.9332478695       24.5116337751       12.3499828585
  C        34.6655199884       23.8536216009       11.3430074517
  C        34.1012415800       22.8064117187       10.6171093031
  C        34.5568651614       25.5881057815       13.1537745320
  C        34.5326221243       25.5624076000       14.5762292960
  C        34.0203934416       24.4470061937       15.3112238944
  C        25.6983421956        8.6037234641       15.3029766471
  C        25.6734171672        8.6055269946       12.4901642531
  C        32.0740234171       21.1953443463        5.8813241301
  C        32.6432651338       22.3580900941        5.1381528586
  C        31.9140954580       22.9971871565        4.1233808287
  C        32.4861307107       24.0386357130        3.3945198100
  C        33.8016211868       24.4706444558        3.6580344727
  C        34.5114176545       23.8439915986        4.7010453680
  C        33.9448617528       22.7997033381        5.4263331585
  C        34.4425358806       25.5561867517        2.8778917901
  C        34.4735682920       25.5465579708        1.4550032723
  C        33.9910826217       24.4398190465        0.6880548752
  C        40.6143777081       17.0935278945        0.7810682983
  C        40.5885889117       17.0830430103        3.5901687675
  C        28.7448480559       14.0525226804        5.8070584370
  C        28.1408141875       12.9061536547        5.0765969260
  C        28.8741991248       12.2244098828        4.0928178862
  C        28.2967850392       11.1674667036        3.3950588868
  C        26.9704343004       10.7668643406        3.6543937612
  C        26.2555899660       11.4353349699        4.6662372650
  C        26.8306191733       12.4928092624        5.3666753553
  C        26.3291416265        9.6785384344        2.8804312047
  C        26.3162420851        9.6939139912        1.4585008117
  C        26.8158585406       10.8009238425        0.7027415292
  C        18.1352169169        3.1807386482       10.3170234367
  C        17.4055757149        4.2778790209       11.0155699150
  C        16.3901435853        3.9992583078       11.9433121823
  C        15.7421395418        5.0390679088       12.6068193556
  C        16.0934856927        6.3828913815       12.3669293102
  C        17.0824927097        6.6526602754       11.4028416931
  C        17.7318432820        5.6154897001       10.7377750388
  C        15.4690248825        7.4904943787       13.1299933449
  C        15.4845610378        7.4899571183       14.5517087044
  C        16.1862394450        6.4964281897       15.3048806501
  C        42.9457345923       31.8593594470       10.0728042745
  C        43.6459879413       30.7717081881       10.8167223255
  C        44.5916401864       31.0929766216       11.8027090447
  C        45.1972491218       30.0873903798       12.5503682754
  C        44.8706117690       28.7343512273       12.3356166485
  C        43.9446450683       28.4200695545       11.3225103905
  C        43.3359252146       29.4252449288       10.5744486702
  C        45.4881765643       27.6550746978       13.1388215923
  C        45.4925509738       27.6808812571       14.5605106579
  C        44.8055576060       28.6889962230       15.3071196041
  C        14.8556805227        8.5625116416       15.2640624501
  C        14.8735177847        8.5621336271       12.4513987580
  C        42.9463873308       31.9614059467        5.8090038269
  C        43.6914865209       30.8853330275        5.0955120640
  C        44.6563027379       31.1912407476        4.1234103666
  C        45.2777267097       30.1716563342        3.4056296344
  C        44.9536647499       28.8213541163        3.6430186954
  C        44.0198949372       28.5236838385        4.6535300526
  C        43.3917125635       29.5404439880        5.3657684816
  C        45.5627057688       27.7239904969        2.8577611086
  C        45.5331613415       27.7174245081        1.4364653735
  C        44.8268809677       28.7076758557        0.6835141079
  C        35.0869522223       26.6389499144        0.7550833153
  C        35.0507535519       26.6146781145        3.5656820822
  C        18.1483954202        3.2467943861        5.7066032473
  C        17.4295739857        4.3435869637        4.9973806957
  C        16.4145730554        4.0521804594        4.0736288570
  C        15.7661556079        5.0827283271        3.3981960290
  C        16.1205021822        6.4280286105        3.6210380642
  C        17.1115985053        6.7115264750        4.5785621556
  C        17.7593694753        5.6827075808        5.2583780855
  C        15.4899915556        7.5236911056        2.8485490612
  C        15.4958710842        7.5070538820        1.4274068744
  C        16.1925864217        6.5053300691        0.6806965519
  H        10.6723892320       12.4664430262        3.9038444660
  H        11.6943462064       10.5515062897        2.6619470676
  H        15.3907950929       11.1672310098        4.7730279747
  H        14.3504027550       13.0700789269        6.0184430391
  H        13.3757837167       11.6308700465        1.2011054880
  H        50.3225732824       22.7490687682        3.9874222101
  H        49.3192554343       24.6233954987        2.6812592676
  H        45.6411778516       24.1601869864        4.8628410373
  H        46.6621614738       22.2893893981        6.1711315852
  H        47.6293110062       23.5757752640        1.2461934773
  H        14.8713292364        8.5878040134        4.6084172611
  H        50.2868554421       22.7030796186       12.0600089245
  H        49.2686296944       24.5758409839       13.3600947836
  H        45.6096468444       24.1082356513       11.1466307463
  H        46.6519313586       22.2530752585        9.8323549158
  H        47.6072195611       23.5516626899       14.7968402166
  H        40.6664847541       17.1660119933       11.4399472029
  H        48.6868710613       14.0948527322        7.7998946845
  H        10.6807775771       12.4672012405       12.0938367743
  H        11.6885780546       10.5250499890       13.2975441740
  H        15.3918679396       11.1568129752       11.2042531818
  H        14.3636855049       13.0854855469        9.9889100071
  H        13.3750776055       11.6216221693       14.7529108120
  H        47.9298515902       14.2181339908        9.7106571193
  H        47.7800663496       14.3735395322        6.4949541941
  H        49.0832413883       18.5524774864       10.8673852789
  H        10.4154225787       14.1343137511        7.9987525005
  H        24.4838686972        3.0214739152        3.9195231785
  H        25.6301136549        4.8764804828        2.6917219441
  H        23.2603568939        7.7512928830        4.8408264277
  H        22.1326080250        5.8862863119        6.0704040682
  H        23.8181971710        5.7844257760        1.2660937674
  H        36.3546432357       32.1902961426        3.9875141553
  H        35.2055696147       30.3720222182        2.7238781183
  H        37.4654161745       27.4369288561        4.9098516558
  H        38.5942407555       29.2681914586        6.1839428405
  H        36.9735709245       29.4590220952        1.3063275491
  H        25.7551154523        8.5983806740        4.6466462904
  H        36.4511619970       32.2428189311       12.1122221596
  H        35.3384314441       30.4312074188       13.4123989887
  H        37.5456611897       27.4874714327       11.1827120920
  H        38.6319550273       29.3106146670        9.8684276676
  H        37.0128498294       29.4790439794       14.8596503405
  H        46.1083691879       26.5870636482       11.3855150038
  H        44.6681941380       35.1160587166        7.8139376039
  H        24.4359567424        3.0353070666       12.0811399169
  H        25.5677333475        4.8745583883       13.3342176943
  H        23.1590557193        7.7640380417       11.2495279304
  H        22.0395598573        5.9126474792        9.9958337116
  H        23.7901578780        5.7867620807       14.8168768872
  H        44.9535186083       34.3900046651        9.6948093496
  H        44.9016693966       34.2067002121        6.4906060726
  H        40.6657966464       33.2086177541       10.8529048944
  H        23.1505807484        1.9570810882        8.0051647839
  H        25.7832099138       19.6327586412        3.9190571358
  H        23.6223959542       19.6903185521        2.6762896185
  H        22.2976642662       16.2085776821        4.8265914424
  H        24.4639877361       16.1640351032        6.0704878669
  H        23.7083333888       17.6889811296        1.2302363872
  H        35.1222214798       15.4451120972        4.0067817224
  H        37.2341442017       15.3958737633        2.6803952630
  H        38.7075097296       18.7566914180        4.9258177474
  H        36.5906995969       18.7875654437        6.2551108382
  H        37.2181991278       17.3543028341        1.2530407599
  H        20.3270910136       17.9551093628        4.6454251227
  H        35.2411901770       15.4310735904       12.0203006287
  H        37.3591907215       15.3946048859       13.3434934782
  H        38.7298169083       18.8796182294       11.2266932591
  H        36.6047905078       18.9017294599        9.9047243973
  H        37.2437835340       17.3783922418       14.8028962906
  H        35.1658948788       26.6801741826       11.4111518731
  H        28.5071236670       21.1074495478        7.8808610459
  H        25.7355483021       19.6722943747       12.1166896107
  H        23.5577519736       19.7277583874       13.3387356676
  H        22.2914898861       16.2001879186       11.2291640871
  H        24.4728367392       16.1595863090       10.0064508577
  H        23.6960107075       17.6946111241       14.7840589127
  H        29.0211469025       21.7978331606        9.7348293205
  H        29.1915570115       21.7000086819        6.5356559079
  H        32.1146014759       18.4730036688       10.9442903873
  H        27.3767676368       18.9875590555        8.1157263148
  H        14.8507484509       19.6722744730       12.1062761808
  H        17.0194293222       19.7306912031       13.3432725926
  H        18.3004188786       16.1985092582       11.2503608616
  H        16.1281418228       16.1565448106       10.0123121478
  H        16.9120282872       17.7253611420       14.8123037217
  H        46.0942903977       15.4564991930       12.0828170620
  H        43.9770717212       15.4158006947       13.4024873176
  H        42.5711005076       18.8527284354       11.2307672529
  H        44.6877353646       18.8675049535        9.9000748466
  H        44.0295717274       17.3420664251       14.8705410425
  H        20.2897045680       17.9499570162       11.4000070797
  H        46.0409031369       15.3769757556        4.0465825762
  H        43.9049594289       15.3035948084        2.7595159705
  H        42.5003137527       18.7549201958        4.9076358286
  H        44.6434554606       18.8157935446        6.1945692164
  H        44.0043290900       17.2955435987        1.3197209761
  H        46.1984225076       26.6823049026        4.6232893523
  H        52.7409869988       21.0625232705        8.1946344986
  H        14.8691313921       19.6786410966        3.9058574208
  H        17.0634845701       19.7516349642        2.7110180195
  H        18.3097530146       16.2015824544        4.7941632356
  H        16.1181168520       16.1535759872        6.0001332336
  H        16.9239396584       17.7271695127        1.2612406698
  H        52.3217989940       21.6733717767        6.2948300559
  H        52.0128207374       21.7019787901        9.4954046391
  H        49.0661157839       18.6072436733        5.2047466502
  H        13.2468678701       19.0165728616        7.9756332770
  H        29.9618792098       12.4183145602       12.1970102493
  H        28.8842366832       10.5106364455       13.3990195825
  H        25.2535658718       11.1747914162       11.1905708783
  H        26.3451997523       13.0760165417        9.9888301362
  H        27.1767639353       11.6624925998       14.7862906435
  H        31.0090452037       22.7581962101       12.0336377786
  H        32.0123276264       24.6390387694       13.3265304865
  H        35.6976720119       24.1472762230       11.1630915589
  H        34.6740068140       22.2743938575        9.8609129874
  H        33.6765331091       23.5737222005       14.7643623635
  H        25.6999732155        8.5857743753       11.4021218428
  H        30.9044788762       22.6548128034        3.9073095686
  H        31.9121713870       24.5330469519        2.6138388069
  H        35.5299784776       24.1629201640        4.9123084515
  H        34.5020909031       22.2954290448        6.2121990148
  H        33.6242836743       23.5610701056        1.2109456608
  H        40.5796300895       17.0397907767        4.6776221699
  H        32.5314602505       14.0628889915        7.8175814850
  H        29.8961890534       12.5361489569        3.8906894965
  H        28.8724496958       10.6352254678        2.6410453553
  H        25.2294716019       11.1382250062        4.8725980935
  H        26.2730710538       13.0254740328        6.1331865998
  H        27.1758126877       11.6781240234        1.2325439180
  H        33.3583838252       14.3145237278        6.4297673893
  H        33.4446741693       14.1361450333        9.5671880870
  H        32.0291337710       18.4676517884        5.1351519842
  H        30.1728902102       14.1481717023        8.0986358777
  H        16.1185421051        2.9626653048       12.1298985419
  H        14.9528872449        4.8194438140       13.3226248611
  H        17.3643583722        7.6856410508       11.2094734230
  H        18.5135218482        5.8183000965       10.0095878916
  H        16.7526979768        5.7390174292       14.7713783164
  H        44.8280662893       32.1400310003       11.9768388038
  H        45.9371851508       30.3410531745       13.3062722043
  H        43.6817288014       27.3780347553       11.1525207815
  H        42.5992211600       29.1899093188        9.8098662172
  H        44.2301121629       29.4367022405       14.7688300067
  H        14.8494433304        8.5451720732       11.3631877458
  H        44.9000396167       32.2339037666        3.9321308291
  H        46.0247710138       30.4128205750        2.6525120834
  H        43.7625884310       27.4839841322        4.8447957777
  H        42.6449368359       29.3176060212        6.1239295267
  H        44.2683225715       29.4705351535        1.2180853100
  H        35.0017097690       26.6268525180        4.6529228233
  H        36.6051817202       35.1339162523        8.1807196650
  H        16.1437250913        3.0125569589        3.9037958973
  H        14.9739657870        4.8557408517        2.6880036792
  H        17.3947606737        7.7470557303        4.7556348216
  H        18.5419978668        5.8932311368        5.9833836242
  H        16.7640124121        5.7550737699        1.2191199761
  H        36.2787974644       34.4820638026        6.2733980537
  H        36.3810586027       34.2089015959        9.4996421672
  H        40.5783222482       33.2011335550        5.1542376864
  H        17.4708327224        1.9469624770        7.9739895005
  H        28.8850675640       19.0898501878       12.3788559439
  H        28.7801914959       18.8066946208        3.8169452630
  H        31.3706357886       15.5502741509        3.5957553651
  H        31.4267210593       15.4663741654       12.4584152508
  H        29.4623009367       15.3281863288       14.2907255828
  H        32.3092775741       16.8883244218        1.4080164446
  H        18.8538360400        0.8691151429       12.3351993059
  H        40.5281026597       35.2291182328        3.9522195141
  H        42.3226590464       34.4176057889        3.5911998973
  H        22.0878915359        0.6918713068       12.3513725038
  H        11.5962055459       18.7133621216       12.3828077712
  H        52.2646056281       18.4309684937        3.6773882594
  H        49.2546471563       16.4772587134        3.5846417893
  H        10.1504169597       15.7981897216       12.2924270566
  H        50.8495831488       17.6925622774        3.9541668511
  H        10.0459373844       17.3946014317       12.0519890480
  H        20.2153092844        0.0022822154       12.0419238478
  H        39.1835403803       36.1243371211        3.6863051576
 Ni        30.5178886674       17.5824582515        2.8288073869
 Ni        30.6041892077       16.6434041932       -0.1702879227
 Ni        29.6764434491       18.4583314853        0.5877368169
 Ni        30.1849488435       17.2786889326       13.0787963681
  O        10.6498544568       14.3650934138        5.4857196700
  O        12.6130961866       14.6573885186        6.5838202758
  O        49.1478152890       16.8460003194        7.9896828658
  O        50.3500870682       20.9364204481        5.6482921591
  O        48.3484589410       20.5933378578        6.6659345195
  O        11.0509979891       17.0541495506        6.5004699562
  O        50.3208058946       20.8817651977       10.4068480695
  O        48.3466662839       20.5867875511        9.3270759531
  O        49.5434508481       18.2484503270       10.0683821804
  O        12.3585976570       18.6245616993        7.9996154018
  O        48.6932486132       14.1485011147        6.7512742213
  O         8.2097269762       14.2104020630        9.3226297447
  O        10.7350470534       14.5067253211       10.6643609443
  O        12.5716649679       14.5827048081        9.3285932847
  O        22.8444363967        2.0421460968        5.4873338922
  O        21.6058407157        3.5924649568        6.5891059170
  O        42.0578524925       34.1369030290        7.9788254287
  O        37.9812088625       33.1365056875        5.5724695283
  O        39.2173217902       31.5752416855        6.6657687838
  O        20.3083388956        1.0394249891        6.5017806768
  O        38.0243513060       33.1848636988       10.4157584777
  O        39.2181601542       31.5828379947        9.3277148828
  O        40.6521282738       33.7690250105       10.0600643884
  O        18.2557611970        1.3761358412        7.9967421940
  O        44.6222669938       35.1005113756        6.7587140231
  O        24.2054318684        0.0000114637        9.3207864118
  O        22.7525861246        2.0563755327       10.5832186837
  O        21.6239237563        3.5953202574        9.3415733606
  O        27.4568704197       18.6933274945        5.4951397622
  O        26.6907646183       16.9125793523        6.6701546869
  O        30.6327629111       19.3413524092        8.0705420607
  O        33.5850859940       16.2592594854        5.7469534506
  O        34.2676989924       18.1773394628        6.7435165524
  O        29.5262142353       17.0062742437        6.5931009873
  O        33.6846096157       16.2648442706       10.3232646057
  O        34.3068185689       18.2452424351        9.4016808035
  O        31.6804960231       18.2536777152       10.1009169808
  O        30.2990127818       15.1105865853        8.0798316193
  O        28.5472960706       21.0303265035        6.8345805840
  O        28.5500099945       21.0140426045        9.4063470071
  O        27.4564574841       18.6828033060       10.6543130701
  O        26.6949645997       16.9266541832        9.4163203798
  O        13.1464491667       18.6938419582       10.5861903072
  O        13.9180665319       16.9159423900        9.4039217001
  O        50.5956968496       19.3503179936        8.0204982166
  O        47.6821715279       16.3274505208       10.4173711388
  O        46.9515790437       18.1761503768        9.3246606385
  O        11.0690824448       17.0157367677        9.4896862377
  O        47.6765153644       16.3353772550        5.6536416452
  O        46.9265986611       18.2355707958        6.6642629169
  O        49.5688057469       18.3178482287        5.9822250964
  O        10.3184955877       15.1001978807        7.9970964414
  O        52.6706954565       21.0280078262        9.2418331556
  O        12.1468387425       20.8913563125        6.6732123491
  O        13.1058869202       18.6141389572        5.3259359497
  O        13.9558941767       16.9865496540        6.6651687537
  O        30.0268849377       14.3611943206       10.6548248318
  O        28.0866940104       14.6524830314        9.4954104131
  O        32.0715082022       16.8507470632        8.0570956832
  O        30.9704156884       20.9493161691       10.4115099173
  O        32.9456886496       20.5995781423        9.3365869401
  O        29.5185509097       16.9931729960        9.7412709229
  O        30.8461193164       20.8829097916        5.6636502316
  O        32.8659151082       20.5791674515        6.6702043776
  O        31.6140962800       18.2470082991        5.9882176358
  O        28.2734875234       18.6161444135        8.0842503523
  O        32.5262019132       14.1432142569        9.2495169895
  O        32.4521012396       14.1379507750        6.7462329416
  O        29.9163035096       14.4315399665        5.4891863954
  O        28.0320035416       14.5808784650        6.7416459524
  O        17.8891810058        1.9664672613       10.6628037752
  O        18.9561721265        3.5271024493        9.4080052214
  O        39.1685633376       34.1385955185        7.9971123525
  O        43.2801882970       33.0588591342       10.3316164914
  O        42.0343007706       31.5064747064        9.2415680195
  O        20.3174707766        1.0364846707        9.4801750513
  O        43.2760539410       33.1824745341        5.5748995171
  O        42.0051912091       31.5841130012        6.5830394588
  O        40.5789523815       33.7749062740        5.9355810021
  O        22.3671400629        1.3843440733        7.9978111207
  O        36.6728091728       35.0996316675        9.2333514236
  O        16.4456039013        0.0641514577        6.6682618596
  O        17.9363785900        2.0432365766        5.3264183325
  O        18.9190059997        3.5931370241        6.6658247212
  O        29.6952753535       18.7557918449        4.1492676485
  O        29.7411714966       18.8302773272       11.9897243370
  O        31.3456940905       16.3398187111        4.1667020590
  O        31.4735228472       16.2666776433       11.8981574241
  O        31.4274903390       16.4804223428        1.5049355620
  O        30.3375414907       15.7548620866       14.2215682927
  O        39.4568303928       35.2438135271        4.0019713741
  O        19.1418504435        0.0046981685       11.9904794717
  O        41.9695761531       35.1726140191        4.0870702758
  O        21.6912976575       -0.0694832753       11.8958352750
  O        51.3647942351       18.6142893808        4.0052962547
  O        10.7505967230       18.7473601386       11.9049911083
  O        50.0792199898       16.4127816326        4.0916801863
  O         9.5244640363       16.4830696845       11.9912040323
 Zr         9.2960277490       16.0529138439        6.1821922810
 Zr        49.8350830770       16.0069039830        9.7465637576
 Zr        22.0730758888        0.0289297108        6.1890460168
 Zr        42.4606395952       35.1525458971        9.8005200031
 Zr        29.5670386109       19.0670436820        6.2660272688
 Zr        29.6052330289       19.2541680455        9.8722559847
 Zr        11.0367491433       19.0522923978        9.8275003572
 Zr        11.0428058686       19.1552347534        6.2512709386
 Zr        31.5375068126       15.9242167147        9.8371072162
 Zr        31.3312036134       16.0326908420        6.2547724946
 Zr        18.6008764446       -0.0021809309        9.7636224649
 Zr        18.5063743793       -0.0084457394        6.2134233223
 Zr        12.3001428460       16.3233785810        7.9903509330
 Zr        48.6152810347       18.8329824124        8.0100455113
 Zr        20.3145035806        2.4725237656        7.9901583476
 Zr        40.6425132311       32.6860456944        7.9780187621
 Zr        28.2853405936       16.2826431558        8.0418820308
 Zr        32.6275655187       18.8233399440        8.0619653598
  H        29.1493909981       17.7791696864        1.8327095355
  H        29.1381485595       16.7626695240       10.6184439118
