     566
 i =      159, E =     -4712.2233741835
  C        11.8585561378       14.0534214973        5.7415680794
  C        12.4561087939       12.8904748761        5.0232939760
  C        11.7045909640       12.1718613127        4.0812585724
  C        12.2809830235       11.1096510754        3.3889240125
  C        13.6214284104       10.7395457108        3.6169558527
  C        14.3543915292       11.4427582491        4.5908583766
  C        13.7814562734       12.5076844145        5.2823990624
  C        14.2609919715        9.6489089076        2.8435573302
  C        14.2561621802        9.6567487473        1.4218497759
  C        13.7428302038       10.7587618929        0.6678943603
  C        49.1264743540       21.2335218673        5.8798032957
  C        48.5495850780       22.4012739104        5.1526163321
  C        49.2996707147       23.0687438322        4.1717572566
  C        48.7327022298       24.1078131094        3.4385111428
  C        47.4020804533       24.5092597679        3.6669911770
  C        46.6710129501       23.8601571247        4.6802654223
  C        47.2334876100       22.8152736330        5.4096371650
  C        46.7719179833       25.5869881948        2.8696961716
  C        46.7609671938       25.5573616302        1.4479399644
  C        47.2607064800       24.4421535952        0.7044941273
  C        14.8601352760        8.5704289344        0.7085838945
  C        14.8919517779        8.5970400143        3.5201921292
  C        49.1129869627       21.2033625880       10.1453109606
  C        48.5275806634       22.3646656305       10.8725444330
  C        49.2667725338       23.0253501765       11.8655055605
  C        48.6904441706       24.0598993612       12.5969658850
  C        47.3600631895       24.4567319438       12.3586468564
  C        46.6396520142       23.8118141175       11.3351338768
  C        47.2132132481       22.7759023640       10.6033567527
  C        46.7216847234       25.5317848780       13.1496174358
  C        46.7333215439       25.5281483494       14.5713206126
  C        47.2484844578       24.4288266296       15.3277329144
  C        40.6251732687       17.1097177740       15.2876750938
  C        40.6325737151       17.1614977356       12.4792943592
  C        11.8828427868       14.0863360174       10.2854506215
  C        12.4718980457       12.9102395301       10.9893952936
  C        11.7144937477       12.1776457932       11.9160879670
  C        12.2809153391       11.0951264677       12.5845382190
  C        13.6194545362       10.7206827411       12.3521881493
  C        14.3571571277       11.4354292871       11.3905445727
  C        13.7918946735       12.5166438611       10.7178012004
  C        14.2530948191        9.6240644233       13.1227218702
  C        14.2519652140        9.6441625061       14.5445700219
  C        13.7421205335       10.7531265628       15.2916389163
  C        22.5114334100        3.2447651055        5.7497629682
  C        23.2237718044        4.3481787204        5.0442689237
  C        24.2159199321        4.0650913175        4.0935514150
  C        24.8428069219        5.1020009268        3.4069389144
  C        24.4939550277        6.4454799189        3.6500262419
  C        23.5291533321        6.7198201938        4.6369274302
  C        22.8976581494        5.6848819777        5.3221257468
  C        25.1017792325        7.5520334506        2.8745760671
  C        25.0749768928        7.5505203309        1.4526952023
  C        24.3778869937        6.5511073358        0.7022988770
  C        38.2997788069       31.9291138391        5.8493203859
  C        37.5604066350       30.8431726099        5.1407393901
  C        36.5947929247       31.1564238011        4.1714811774
  C        35.9621625186       30.1435850511        3.4557046916
  C        36.2793774492       28.7904963695        3.6858258370
  C        37.2171330462       28.4844536016        4.6903982809
  C        37.8535509136       29.4964964358        5.4058852695
  C        35.6586269599       27.7069241985        2.8886197605
  C        35.6829757471       27.7251796727        1.4663784575
  C        36.3943138803       28.7226397823        0.7274654069
  C        25.6930175231        8.6267090412        0.7369252529
  C        25.6999815648        8.6242370405        3.5489368891
  C        38.3253221560       31.9613702640       10.1565353505
  C        37.5930068049       30.8920652001       10.8981993717
  C        36.6582583366       31.2104668659       11.8958629639
  C        36.0317860899       30.1998877339       12.6232782131
  C        36.3241736463       28.8429249677       12.3784838120
  C        37.2381378568       28.5342948052       11.3518866941
  C        37.8666972492       29.5419439735       10.6252674216
  C        35.6974538002       27.7520984829       13.1633094988
  C        35.7024379249       27.7486686708       14.5864517048
  C        36.4032524716       28.7343534103       15.3503969375
  C        46.1354864738       26.6209143281       15.2814037914
  C        46.0879244598       26.5802211101       12.4735084847
  C        22.4629371495        3.2582536246       10.2559558754
  C        23.1589021711        4.3707769063       10.9720708370
  C        24.1718478569        4.0925544840       11.9037593950
  C        24.7999759812        5.1278281104       12.5925087737
  C        24.4348821347        6.4717851705       12.3747030184
  C        23.4456048578        6.7432317984       11.4105208972
  C        22.8140044170        5.7085140918       10.7208343151
  C        25.0598437661        7.5735075730       13.1503357267
  C        25.0538242608        7.5614458338       14.5732878803
  C        24.3668595909        6.5568632440       15.3255537970
  C        26.5644491777       17.8196106336        5.7506706814
  C        25.2557450531       17.8707224301        5.0368555019
  C        24.9923815898       18.8784455575        4.0960781928
  C        23.7802174995       18.9001787447        3.4116080737
  C        22.7997028396       17.9154183591        3.6445641017
  C        23.0573305818       16.9312711159        4.6167489368
  C        24.2705590346       16.9061333386        5.3019501892
  C        21.5359027942       17.9011464445        2.8695296911
  C        21.5541596210       17.8953390915        1.4479191572
  C        22.7696932320       17.7759903204        0.7031401686
  C        34.4485622742       17.1797458542        5.8798954060
  C        35.7459549967       17.1123911936        5.1488301988
  C        35.9504659624       16.1373274580        4.1604012356
  C        37.1315003386       16.1213820087        3.4233405339
  C        38.1394986066       17.0765907709        3.6585670217
  C        37.9401489792       18.0273173790        4.6773004452
  C        36.7557176254       18.0509478051        5.4090892390
  C        39.3901950233       17.0904806141        2.8669963455
  C        39.3786598841       17.1122648489        1.4455484887
  C        38.1677495341       17.2391275262        0.6944348929
  C        20.3164896936       17.9252086415        0.7263105586
  C        20.3053777793       17.8938237752        3.5384792997
  C        34.4804246254       17.2554516040       10.1068565013
  C        35.7755317025       17.1880087920       10.8413086446
  C        35.9690012134       16.2143917724       11.8332619310
  C        37.1458463064       16.1933491376       12.5757268905
  C        38.1581139761       17.1455481213       12.3475100081
  C        37.9688923768       18.0966667886       11.3267710704
  C        36.7900500097       18.1226765496       10.5859117607
  C        39.4031175038       17.1515036336       13.1472786073
  C        39.3847763299       17.1452767322       14.5690439562
  C        38.1706229420       17.2557072392       15.3176022936
  C        35.0607353061       26.6766151492       15.2922727549
  C        35.0963743552       26.6855317404       12.4816063968
  C        26.6391507549       17.8158862875       10.3746413134
  C        25.3332190571       17.8726272047       11.0858586952
  C        25.0480291166       18.8927477808       12.0061296983
  C        23.8149189731       18.9278139648       12.6526101112
  C        22.8369573665       17.9445148379       12.4016593799
  C        23.1182933971       16.9474969440       11.4497459101
  C        24.3502748782       16.9096322685       10.8020337506
  C        21.5584551960       17.9325712914       13.1519151026
  C        21.5652725734       17.9112655527       14.5729526040
  C        22.7748155145       17.7830957477       15.3270736040
  C        14.0512962596       17.8351984522       10.2803003221
  C        15.3670162545       17.9068768921       10.9850837600
  C        15.6376645739       18.9272221499       11.9100372116
  C        16.8556218933       18.9578156666       12.5869202488
  C        17.8362545202       17.9704817777       12.3620881823
  C        17.5724594676       16.9770304782       11.4007872954
  C        16.3544096652       16.9427639355       10.7243506181
  C        19.1024300821       17.9502770146       13.1369816537
  C        19.0836723133       17.9349391305       14.5591956112
  C        17.8663018347       17.8353151081       15.3044752310
  C        46.8034239662       17.2155628513       10.1526746036
  C        45.5078468031       17.1485354727       10.8850479211
  C        45.2910077115       16.1613448017       11.8583288630
  C        44.1050636896       16.1434783116       12.5867425544
  C        43.1084268266       17.1133584692       12.3636921564
  C        43.3204152745       18.0772204528       11.3599322297
  C        44.5066824287       18.0985994742       10.6319383725
  C        41.8577518549       17.1308471126       13.1538576291
  C        41.8692069788       17.1221771655       14.5750898598
  C        43.0821492997       17.2096143781       15.3280205968
  C        20.3213941061       17.9333074980       15.2820872813
  C        20.3348089267       17.9304962165       12.4689299818
  C        46.7861297278       17.2330734778        5.8830504198
  C        45.4895367610       17.1282637659        5.1548418341
  C        45.2836730178       16.1339304120        4.1858858000
  C        44.1007144649       16.1022410381        3.4513513195
  C        43.0925316052       17.0617150146        3.6680687605
  C        43.2906010275       18.0280233731        4.6724741028
  C        44.4747865291       18.0663305483        5.4021612932
  C        41.8449473967       17.0745718415        2.8717393628
  C        41.8632895593       17.0912440610        1.4505800470
  C        43.0792878745       17.1946564985        0.7046205092
  C        46.1531778445       26.6373460409        0.7261632205
  C        46.1620643497       26.6561645516        3.5357979583
  C        14.0382879420       17.8235496094        5.7012471295
  C        15.3471943565       17.8813023856        4.9888518760
  C        15.6167052529       18.8993737820        4.0623355233
  C        16.8365756815       18.9289626683        3.3910174541
  C        17.8124427111       17.9392398228        3.6218345802
  C        17.5472099665       16.9444865814        4.5804334905
  C        16.3295558337       16.9146797984        5.2554104946
  C        19.0813090411       17.9208090813        2.8577153031
  C        19.0729913146       17.9191931868        1.4364789749
  C        17.8614493967       17.8274425364        0.6806616915
  C        28.7847153889       14.1230426621       10.3580511833
  C        28.1660762685       12.9562188361       11.0529637062
  C        28.8852085272       12.2325538653       12.0164718150
  C        28.2885022617       11.1599673262       12.6747709660
  C        26.9583977342       10.7844067950       12.3952891186
  C        26.2607795107       11.4911398552       11.3986224896
  C        26.8546079864       12.5649333530       10.7388390601
  C        26.2956824337        9.6980183288       13.1551239060
  C        26.2849916212        9.7166385636       14.5769592199
  C        26.7815934846       10.8287514955       15.3283338897
  C        32.1064412519       21.2345786946       10.1839374015
  C        32.6816342151       22.4090153208       10.9030274965
  C        31.9292683411       23.1076227382       11.8600640714
  C        32.4975961133       24.1607490490       12.5721102501
  C        33.8348870974       24.5442757570       12.3494108322
  C        34.5681865105       23.8661918695       11.3573382630
  C        34.0021585144       22.8103025013       10.6464001271
  C        34.4681847725       25.6237829307       13.1430161910
  C        34.4595191913       25.5974611993       14.5648803572
  C        33.9472783339       24.4844750698       15.3034531851
  C        25.6848238704        8.6300076265       15.2916952416
  C        25.6662428586        8.6439184193       12.4784964256
  C        32.0920973333       21.1767031245        5.8286082376
  C        32.6488717729       22.3583289271        5.1057556723
  C        31.9094395321       23.0087802598        4.1057472949
  C        32.4705482320       24.0646132341        3.3899252674
  C        33.7877293117       24.4951830606        3.6472840847
  C        34.5067212028       23.8594818475        4.6781241573
  C        33.9484419584       22.8047168581        5.3948971628
  C        34.4233241503       25.5822980664        2.8656768294
  C        34.4369805210       25.5757774087        1.4428577482
  C        33.9371313444       24.4737318456        0.6800086196
  C        40.6222334597       17.0932808986        0.7322564202
  C        40.6162924171       17.0902384141        3.5413421708
  C        28.7474078772       14.0606252067        5.8081774030
  C        28.1368497160       12.9127218712        5.0757712711
  C        28.8657415749       12.2253854276        4.0931528214
  C        28.2824782706       11.1713251172        3.3945387959
  C        26.9540640251       10.7772981747        3.6529381357
  C        26.2432250064       11.4505278630        4.6642252294
  C        26.8246417657       12.5057838857        5.3644349170
  C        26.3093325174        9.6913196969        2.8760709989
  C        26.2939243512        9.7130878204        1.4540725320
  C        26.7850734562       10.8279209856        0.7044398614
  C        18.1355597271        3.1810320611       10.3171093668
  C        17.4061551844        4.2781958711       11.0157443307
  C        16.3903032996        3.9997150377       11.9430713615
  C        15.7424905513        5.0396138496       12.6066008769
  C        16.0944264254        6.3833474285       12.3670825244
  C        17.0840212928        6.6529852138       11.4035825300
  C        17.7332198615        5.6157288180       10.7384951905
  C        15.4699219016        7.4909584339       13.1301096048
  C        15.4853038055        7.4903594268       14.5518178017
  C        16.1871344960        6.4969242646       15.3049668293
  C        42.9458043976       31.8597106214       10.0728716663
  C        43.6463235251       30.7720004591       10.8166545742
  C        44.5917411882       31.0933725875       11.8028262675
  C        45.1975401139       30.0878532534       12.5504545444
  C        44.8713286253       28.7347512903       12.3354850992
  C        43.9457191428       28.4203618011       11.3220809535
  C        43.3368309853       29.4254749116       10.5740561578
  C        45.4888438482       27.6554563922       13.1387282428
  C        45.4929884828       27.6811323573       14.5604278980
  C        44.8060734320       28.6893175794       15.3070240313
  C        14.8562325739        8.5628105368       15.2641500314
  C        14.8743910112        8.5625385584       12.4514790561
  C        42.9464515175       31.9617232948        5.8090286372
  C        43.6916632739       30.8855827175        5.0955505498
  C        44.6561477042       31.1915532835        4.1231574830
  C        45.2776758280       30.1719917194        3.4054025845
  C        44.9539706442       28.8216531962        3.6430226074
  C        44.0206437999       28.5239408720        4.6539420657
  C        43.3923966825       29.5406673889        5.3661876872
  C        45.5629489166       27.7242587787        2.8577295062
  C        45.5333638759       27.7176123300        1.4364272668
  C        44.8272844397       28.7079699134        0.6834172086
  C        35.0498822741       26.6649178324        0.7381463377
  C        35.0450775512       26.6357413944        3.5485742332
  C        18.1486879110        3.2469380653        5.7065687474
  C        17.4302595645        4.3437878366        4.9971377658
  C        16.4146748264        4.0526179471        4.0739476543
  C        15.7663958100        5.0832820687        3.3985781585
  C        16.1214500563        6.4284636969        3.6209900977
  C        17.1133504409        6.7117678210        4.5777149304
  C        17.7610200359        5.6828123858        5.2574353119
  C        15.4908293044        7.5241496361        2.8485949574
  C        15.4966055547        7.5074691899        1.4274619157
  C        16.1934619514        6.5058222338        0.6807805224
  H        10.6725533581       12.4661744022        3.9039871450
  H        11.6947531131       10.5513534667        2.6621950119
  H        15.3912715712       11.1678260173        4.7729579348
  H        14.3506822886       13.0704651763        6.0183575686
  H        13.3757833811       11.6309026872        1.2011499827
  H        50.3224452591       22.7488399277        3.9871763861
  H        49.3191775063       24.6231836505        2.6810007228
  H        45.6414031405       24.1606667431        4.8631953337
  H        46.6623425892       22.2897875029        6.1714665245
  H        47.6289331868       23.5756647616        1.2462149264
  H        14.8724162533        8.5882989184        4.6085013275
  H        50.2867749132       22.7024112010       12.0604715593
  H        49.2687777246       24.5753211427       13.3605349584
  H        45.6102369091       24.1090218005       11.1460761682
  H        46.6523428736       22.2537147047        9.8318412357
  H        47.6069861449       23.5515744628       14.7968652444
  H        40.6350984786       17.1369640386       11.3912794347
  H        48.6869343331       14.0948059617        7.7999829592
  H        10.6812418255       12.4672357225       12.0939372111
  H        11.6891651220       10.5252026279       13.2976465032
  H        15.3923000351       11.1568554138       11.2040262792
  H        14.3640577239       13.0853620861        9.9886269080
  H        13.3751165601       11.6216663376       14.7530103374
  H        47.9301762279       14.2178428988        9.7108191070
  H        47.7798160447       14.3727153719        6.4950556259
  H        49.0821136152       18.5516000852       10.8668932216
  H        10.4156242567       14.1342949495        7.9987894633
  H        24.4744284917        3.0257715533        3.9034013620
  H        25.6129925164        4.8807644528        2.6711911520
  H        23.2517744198        7.7536983458        4.8318072344
  H        22.1314703302        5.8890937353        6.0660745415
  H        23.8206739065        5.7889689249        1.2392462462
  H        36.3640806710       32.2019483077        3.9813663875
  H        35.2130352783       30.3922255211        2.7071444307
  H        37.4715195678       27.4428850337        4.8757755636
  H        38.6017909617       29.2661229355        6.1607388634
  H        36.9656822938       29.4683928651        1.2725517296
  H        25.7375222042        8.6017051247        4.6365818976
  H        36.4425029908       32.2570441745       12.0987318109
  H        35.3020438248       30.4554075973       13.3884638807
  H        37.4783173826       27.4915338907       11.1548415944
  H        38.5934654647       29.3058395039        9.8516071245
  H        36.9825586656       29.4884475679       14.8254044910
  H        46.1093834701       26.5875742938       11.3854726565
  H        44.6685763215       35.1163401529        7.8138483383
  H        24.4577278140        3.0563841924       12.0703466070
  H        25.5884454102        4.9041335252       13.3079881955
  H        23.1514582075        7.7755224747       11.2319808321
  H        22.0347778247        5.9166072478        9.9912611742
  H        23.8010240129        5.7993241519       14.7911272863
  H        44.9543146693       34.3910713668        9.6958090864
  H        44.9024527280       34.2070433625        6.4906133185
  H        40.6657521490       33.2091464396       10.8530512895
  H        23.1503189344        1.9585530567        8.0041972909
  H        25.7482712634       19.6392468161        3.9163223523
  H        23.5781334846       19.6856311153        2.6866233026
  H        22.3099172381       16.1626101585        4.8023986634
  H        24.4848851059       16.1324643445        6.0354767844
  H        23.7036595607       17.6457183057        1.2422645785
  H        35.1649757802       15.4079834330        3.9760827265
  H        37.2883598545       15.3617464431        2.6605991085
  H        38.7118639618       18.7714335030        4.8632195323
  H        36.5826602250       18.8022447474        6.1759989158
  H        37.2307365157       17.3569077052        1.2312878556
  H        20.2999028121       17.9202235547        4.6266898257
  H        35.1763814240       15.4933459491       12.0192447778
  H        37.2949354692       15.4329029836       13.3390822273
  H        38.7439226292       18.8386693569       11.1462628030
  H        36.6251010038       18.8733568554        9.8165732372
  H        37.2355660768       17.3865480320       14.7802993571
  H        35.0737460722       26.7082846575       11.3936343565
  H        28.5065597273       21.0882220223        7.7705581628
  H        25.7953308918       19.6602830005       12.1930730177
  H        23.5937730696       19.7225109301       13.3617888097
  H        22.3730707122       16.1799370998       11.2513799694
  H        24.5808662123       16.1298904395       10.0800810559
  H        23.7133843842       17.6576182436       14.7953668165
  H        28.9430385847       21.7346546158        9.7034649625
  H        29.2030518890       21.7013444645        6.4564004914
  H        32.1213369025       18.5720580836       10.8968794883
  H        27.4048798978       19.0897328770        7.9928778908
  H        14.8819717951       19.6896799522       12.0856017219
  H        17.0601427839       19.7522690551       13.3015253989
  H        18.3191128413       16.2070129627       11.2175703761
  H        16.1382921743       16.1616282603        9.9993580577
  H        16.9297037233       17.7329100693       14.7643405151
  H        46.0693296927       15.4235980457       12.0385105570
  H        43.9362746450       15.3725119421       13.3353253545
  H        42.5572809982       18.8323884412       11.1835499655
  H        44.6893946828       18.8574905287        9.8748605805
  H        44.0214915260       17.3225144932       14.7944345271
  H        20.3415526949       17.9650246581       11.3808499487
  H        46.0658964274       15.3986803226        4.0114993144
  H        43.9442347760       15.3286369258        2.7027220953
  H        42.5179597937       18.7740962668        4.8461722364
  H        44.6467338978       18.8309949700        6.1557516408
  H        44.0164924309       17.2962019683        1.2441210279
  H        46.1988585951       26.6826675421        4.6232442822
  H        52.7408995249       21.0623959994        8.1946818146
  H        14.8615411854       19.6625776470        3.8879530793
  H        17.0481755193       19.7238210344        2.6790386166
  H        18.2927656780       16.1732679330        4.7626969558
  H        16.1087510845       16.1370306587        5.9825645677
  H        16.9209705364       17.7186292283        1.2127420456
  H        52.3216150155       21.6730993406        6.2947866741
  H        52.0122880531       21.7013910049        9.4954605953
  H        49.0674414627       18.6080327931        5.2039030912
  H        13.2471075185       19.0163936781        7.9739922454
  H        29.9084579498       12.5282251742       12.2378359712
  H        28.8502689334       10.5989393451       13.4184682806
  H        25.2331398545       11.2130006530       11.1737717651
  H        26.3121088793       13.1281167159        9.9833608886
  H        27.1353041279       11.7047882851       14.7930476253
  H        30.8992494077       22.8087522338       12.0384435771
  H        31.9084619947       24.7007202825       13.3101767703
  H        35.6027942824       24.1514202380       11.1779150560
  H        34.5745403161       22.2637428829        9.9004566442
  H        33.5900758045       23.6154475332       14.7584596526
  H        25.6954817026        8.6291745961       11.3903540982
  H        30.9005129364       22.6634701992        3.8911223247
  H        31.8885035567       24.5694103236        2.6220197035
  H        35.5262510539       24.1782654414        4.8849578584
  H        34.5124226938       22.2931578599        6.1711652968
  H        33.5727555894       23.5959926156        1.2060346907
  H        40.6133948263       17.0495726714        4.6289193952
  H        32.5105755036       14.1512278823        8.2409872099
  H        29.8902855774       12.5303702894        3.8931927054
  H        28.8556218252       10.6361606229        2.6405669961
  H        25.2155677015       11.1591439025        4.8714077307
  H        26.2711526765       13.0419731480        6.1316036153
  H        27.1404752006       11.7032369715        1.2405079001
  H        33.3038866243       14.2003697298        6.4525621797
  H        33.4094450768       14.3874277501        9.6000707850
  H        32.1060232053       18.4316368329        5.0397904822
  H        30.2265052020       14.1966118497        8.0544351540
  H        16.1182843675        2.9631764193       12.1293146193
  H        14.9529561030        4.8201816262       13.3221501255
  H        17.3665928474        7.6858705146       11.2107354806
  H        18.5154603488        5.8184759848       10.0108895490
  H        16.7538669357        5.7397247259       14.7714506320
  H        44.8278822351       32.1404687417       11.9771315756
  H        45.9373366822       30.3416895484       13.3064416203
  H        43.6833011794       27.3782519050       11.1517763010
  H        42.6004491082       29.1900728555        9.8091869209
  H        44.2309571077       29.4372470696       14.7686947993
  H        14.8505782478        8.5456468611       11.3632623895
  H        44.8996718253       32.2342414776        3.9317140549
  H        46.0245339913       30.4132977984        2.6521429928
  H        43.7638134645       27.4841898272        4.8455689955
  H        42.6461028183       29.3178262453        6.1248205168
  H        44.2689543947       29.4710198731        1.2179511150
  H        35.0080330554       26.6464870703        4.6362995370
  H        36.6054451958       35.1341818160        8.1806829847
  H        16.1432915731        3.0130757478        3.9045115462
  H        14.9737982194        4.8565426107        2.6887644060
  H        17.3973501030        7.7471720732        4.7541794562
  H        18.5443911954        5.8932210596        5.9816762196
  H        16.7651624796        5.7557955942        1.2192387802
  H        36.2791855677       34.4821506291        6.2733311008
  H        36.3822467187       34.2086977128        9.4993652968
  H        40.5802405956       33.2023973585        5.1539698369
  H        17.4713555418        1.9473440742        7.9742178143
  H        28.5260201216       18.6694190577       12.0607553518
  H        28.7195889380       18.7310053973        3.6465995030
  H        31.2557651403       15.5595857377        3.5752231504
  H        31.0861870137       15.5727730027       12.3694715514
  H        29.2143025077       15.0876725667       14.2598882577
  H        32.2778962326       16.6201582644        1.3063910709
  H        18.8547424591        0.8692677253       12.3354041249
  H        40.5281879663       35.2286389704        3.9519631027
  H        42.3247518826       34.4194925365        3.5899043407
  H        22.0880885894        0.6927402315       12.3513771035
  H        11.5970330628       18.7129976915       12.3828350266
  H        52.2650055973       18.4313590020        3.6779493555
  H        49.2553222743       16.4769930198        3.5844957836
  H        10.1505409478       15.7980561742       12.2927243858
  H        50.8499929542       17.6923820738        3.9541532621
  H        10.0461586935       17.3943068626       12.0520801527
  H        20.2163946127        0.0026265391       12.0417763632
  H        39.1840610965       36.1245057734        3.6865159196
 Ni        30.4361934757       17.5265321564        2.5023201787
 Ni        30.6922811208       16.2523749719       -0.4151689159
 Ni        29.8879767320       18.2363429995        0.0005799834
 Ni        30.1013129325       17.3220910304       13.4963824634
  O        10.6498658193       14.3650944335        5.4858187776
  O        12.6130719890       14.6574852871        6.5838975808
  O        49.1479467873       16.8460004575        7.9897914292
  O        50.3500421810       20.9364012230        5.6483175777
  O        48.3484273925       20.5933580044        6.6659311634
  O        11.0512738126       17.0539359721        6.5006122277
  O        50.3208664886       20.8816577081       10.4068618395
  O        48.3466887768       20.5867180722        9.3270568308
  O        49.5436483228       18.2484218120       10.0683509049
  O        12.3588256612       18.6245156311        7.9999394041
  O        48.6932202694       14.1485502366        6.7513027402
  O         8.2099154520       14.2103714328        9.3225303221
  O        10.7354455579       14.5067795840       10.6643776575
  O        12.5718512757       14.5827878763        9.3285395944
  O        22.8446042764        2.0428185617        5.4868577593
  O        21.6064901025        3.5926764366        6.5883560288
  O        42.0580644858       34.1374332738        7.9791469720
  O        37.9815695081       33.1380381796        5.5725534715
  O        39.2165830438       31.5747550408        6.6651437303
  O        20.3085227254        1.0395034543        6.5020973212
  O        38.0246244875       33.1859961305       10.4152934301
  O        39.2171055441       31.5820444880        9.3284920448
  O        40.6522531906       33.7693501416       10.0601016374
  O        18.2558918247        1.3759699665        7.9968319092
  O        44.6222377471       35.1005446939        6.7587839342
  O        24.2053970469        0.0001270489        9.3208345849
  O        22.7534333724        2.0600907729       10.5844108684
  O        21.6242569101        3.5961059493        9.3418218746
  O        27.4572133908       18.6824825740        5.4131119823
  O        26.6958623917       16.9293774021        6.6572261407
  O        30.6606598522       19.4119613061        7.9213103159
  O        33.5920207102       16.2644753548        5.6602664639
  O        34.2768727352       18.1816614699        6.6614541266
  O        29.5646057368       17.0477759658        6.5097084035
  O        33.6262563832       16.3372310287       10.3262874218
  O        34.3051588790       18.2580934866        9.3264052218
  O        31.6495599270       18.3244052007       10.0844028254
  O        30.3211986043       15.1629556975        8.0700416048
  O        28.5539362674       21.0290239117        6.7337256614
  O        28.5121309393       20.9513604432        9.3238379498
  O        27.5852664421       18.6161971553       10.7443905172
  O        26.7289082478       16.9995558175        9.4072946602
  O        13.1501838991       18.6929224511       10.5870881198
  O        13.9197167125       16.9159896914        9.4043692502
  O        50.5958424645       19.3502606529        8.0211797340
  O        47.6832271696       16.3269630951       10.4167537616
  O        46.9528403303       18.1762918579        9.3232284969
  O        11.0694906142       17.0156833168        9.4897166931
  O        47.6768659479       16.3356925695        5.6529761467
  O        46.9247825746       18.2354151266        6.6624978165
  O        49.5683328701       18.3177993894        5.9822317686
  O        10.3185421089       15.1001797484        7.9970707598
  O        52.6707471973       21.0279604727        9.2419090266
  O        12.1468361446       20.8912336235        6.6732638615
  O        13.1056228414       18.6140443929        5.3257708838
  O        13.9559990240       16.9865024831        6.6647934575
  O        29.9857667768       14.4371413451       10.6542457115
  O        28.0477052088       14.7224073413        9.4937915531
  O        32.1017730731       16.9089726879        8.0012826686
  O        30.9085670920       20.8755008732       10.4982307564
  O        32.8375761806       20.6575912742        9.3212956705
  O        29.5707347383       17.1087990049        9.5011610265
  O        30.8869705817       20.8224587383        5.5624342192
  O        32.8712111264       20.5906502145        6.6525576369
  O        31.6785920530       18.2487511913        5.8942360251
  O        28.2865374724       18.6823000113        7.9819237342
  O        32.4916383080       14.2126891825        9.3224010906
  O        32.4042462263       14.2164664267        6.8194818014
  O        29.9186217592       14.4342928607        5.4795644284
  O        28.0416946176       14.5857138737        6.7449334969
  O        17.8892145652        1.9665966162       10.6627114082
  O        18.9562428599        3.5271803740        9.4079207243
  O        39.1685582948       34.1385231298        7.9972594554
  O        43.2801807758       33.0590391315       10.3317073775
  O        42.0342673378       31.5065291993        9.2416507398
  O        20.3181025552        1.0371167937        9.4798996519
  O        43.2760386053       33.1826380875        5.5749398525
  O        42.0051792650       31.5841825931        6.5830416796
  O        40.5789946588       33.7748335838        5.9362654390
  O        22.3675439773        1.3847833658        7.9978926479
  O        36.6728627831       35.0998107106        9.2333381477
  O        16.4456473212        0.0643176788        6.6683227315
  O        17.9363990788        2.0432529390        5.3264390634
  O        18.9191028339        3.5931667391        6.6658596391
  O        29.6570980062       18.6864375390        3.9094857751
  O        29.4902220159       18.8352098385       12.3272756787
  O        31.2977378699       16.3997573270        4.0681385833
  O        31.3083837289       16.4046072654       11.9020027433
  O        31.3453432607       16.3332383501        1.3274060977
  O        30.1202478858       15.3968397017       14.0693283685
  O        39.4568098612       35.2437201152        4.0019896055
  O        19.1426151891        0.0048753774       11.9904558937
  O        41.9693937396       35.1725055071        4.0871254655
  O        21.6916412797       -0.0688269409       11.8958968646
  O        51.3649676585       18.6143472433        4.0054527697
  O        10.7514084995       18.7472752903       11.9049971757
  O        50.0798240886       16.4128543863        4.0916938737
  O         9.5247489165       16.4829743035       11.9912310278
 Zr         9.2959806701       16.0525737435        6.1822710490
 Zr        49.8358197351       16.0067477213        9.7466054778
 Zr        22.0737506122        0.0305073374        6.1887616951
 Zr        42.4614467834       35.1545134512        9.8011108500
 Zr        29.5912999393       19.0260873907        6.0911264888
 Zr        29.6450476744       19.1970158954        9.6416697466
 Zr        11.0375872165       19.0518686348        9.8280027059
 Zr        11.0427902073       19.1549448895        6.2517329032
 Zr        31.3584142956       16.0969714052        9.8551161774
 Zr        31.3930874545       16.0089082671        6.2056081194
 Zr        18.6020065663       -0.0005707679        9.7634378415
 Zr        18.5070315729       -0.0071304339        6.2138264582
 Zr        12.3008632545       16.3232432064        7.9907134929
 Zr        48.6154185710       18.8328416462        8.0098132987
 Zr        20.3163472776        2.4746259291        7.9901273033
 Zr        40.6437290451       32.6875052018        7.9783810293
 Zr        28.3559305475       16.3377809302        8.0354893947
 Zr        32.6538810154       18.8257491079        7.9753073828
  H        29.2935623469       17.9092994645        1.4261160004
  H        29.4975379482       19.6354351368       12.8855593630
