     566
 i =      116, E =     -4712.2246047260
  C        11.8585750295       14.0534431038        5.7415545409
  C        12.4560341953       12.8904449945        5.0233448747
  C        11.7045053209       12.1717807254        4.0813418071
  C        12.2808841487       11.1095573903        3.3890143914
  C        13.6213265841       10.7394347815        3.6170667572
  C        14.3542861472       11.4426938477        4.5909361849
  C        13.7813947571       12.5076700546        5.2824344481
  C        14.2609272272        9.6488096327        2.8436702803
  C        14.2563325390        9.6567861897        1.4219652389
  C        13.7431639177       10.7588878338        0.6680259798
  C        49.1266822227       21.2333295516        5.8796060858
  C        48.5499902473       22.4012540179        5.1526510630
  C        49.3000617361       23.0686183415        4.1716832224
  C        48.7331777078       24.1078017313        3.4385348107
  C        47.4026406058       24.5095149840        3.6671526783
  C        46.6716664774       23.8606132186        4.6806460724
  C        47.2340442071       22.8156318559        5.4099488589
  C        46.7724514591       25.5872187049        2.8698384865
  C        46.7615261502       25.5575655513        1.4480708511
  C        47.2614082121       24.4424263077        0.7046094835
  C        14.8604068458        8.5705176566        0.7087004113
  C        14.8917439841        8.5968665514        3.5203151972
  C        49.1129804182       21.2033676622       10.1452870015
  C        48.5276057934       22.3646654321       10.8724136845
  C        49.2668073168       23.0253455737       11.8653914512
  C        48.6904957588       24.0598866319       12.5968636769
  C        47.3600846432       24.4567245881       12.3586500987
  C        46.6397190915       23.8118896512       11.3350286451
  C        47.2132499877       22.7759935620       10.6032076168
  C        46.7216987812       25.5317223895       13.1496956458
  C        46.7336067925       25.5281953108       14.5714047613
  C        47.2490584753       24.4290296047       15.3278452280
  C        40.6313006524       17.0720129361       15.3231958949
  C        40.6625078021       17.1520662156       12.5144929520
  C        11.8829652225       14.0864102546       10.2854966094
  C        12.4722054671       12.9104584878       10.9895083258
  C        11.7149426567       12.1776782664       11.9161758372
  C        12.2815533694       11.0952366720       12.5845990525
  C        13.6201888409       10.7210603667       12.3523214166
  C        14.3577653356       11.4360171930       11.3907312398
  C        13.7923188128       12.5171532249       10.7180152672
  C        14.2539427287        9.6244659227       13.1228254260
  C        14.2526500397        9.6444854749       14.5446751723
  C        13.7427021534       10.7533899048       15.2917700655
  C        22.5235072734        3.2496153782        5.7570416933
  C        23.2606697212        4.3560939380        5.0735260657
  C        24.2739356450        4.0747903965        4.1440065729
  C        24.9220557807        5.1119603161        3.4755228942
  C        24.5765800047        6.4579589724        3.7128495463
  C        23.5930113833        6.7309088492        4.6817192957
  C        22.9402968374        5.6952071942        5.3492779583
  C        25.1914140135        7.5615163705        2.9307767279
  C        25.1352102525        7.5552092503        1.5085344264
  C        24.4168587095        6.5572836458        0.7754387037
  C        38.2977305749       31.9281890303        5.8522605063
  C        37.5553016418       30.8402282640        5.1515513425
  C        36.5893945374       31.1483511042        4.1809003031
  C        35.9578404889       30.1313772489        3.4702093715
  C        36.2765716539       28.7795843213        3.7065306192
  C        37.2118596700       28.4789646974        4.7149851698
  C        37.8473751837       29.4949385615        5.4252643414
  C        35.6650267439       27.6922253220        2.9077598730
  C        35.7024517939       27.7078930337        1.4855708602
  C        36.4147029969       28.7083420617        0.7522712598
  C        25.7445523938        8.6244603741        0.7750360856
  C        25.8159210446        8.6317920644        3.5869480425
  C        38.3296858252       31.9603657595       10.1605034260
  C        37.6114588588       30.8882728610       10.9099496331
  C        36.6791914219       31.1994960353       11.9121812203
  C        36.0670626320       30.1840880412       12.6451662361
  C        36.3711941219       28.8294053960       12.4010628241
  C        37.2844275143       28.5282068388       11.3714394981
  C        37.8985291938       29.5402083172       10.6395167828
  C        35.7539222081       27.7323444269       13.1835116226
  C        35.7474480498       27.7286929864       14.6067131780
  C        36.4348516878       28.7194048092       15.3753486108
  C        46.1356860143       26.6209061831       15.2815086935
  C        46.0876914097       26.5800445053       12.4736130726
  C        22.4574234785        3.2571558256       10.2646617412
  C        23.1412331131        4.3652019463       11.0007941985
  C        24.1333070521        4.0782449407       11.9523897486
  C        24.7550690221        5.1067399994       12.6572274900
  C        24.4060723162        6.4541527951       12.4343741642
  C        23.4335804992        6.7338760849       11.4549030988
  C        22.8074700329        5.7057777925       10.7502643185
  C        25.0425904250        7.5538768689       13.2037313463
  C        25.0581709169        7.5510293101       14.6274118961
  C        24.3790822257        6.5557743080       15.3987845157
  C        26.6116080285       17.8495741453        5.7887753166
  C        25.3052435154       17.9000506395        5.0700472436
  C        25.0453598633       18.9028872856        4.1218032660
  C        23.8344915592       18.9239262721        3.4331494489
  C        22.8466515958       17.9466502068        3.6706409948
  C        23.1019708707       16.9674298287        4.6496570202
  C        24.3150464319       16.9399463649        5.3358397297
  C        21.5754469304       17.9349469400        2.9033204804
  C        21.5770598116       17.9214030132        1.4805092952
  C        22.7837555986       17.8072586391        0.7202137680
  C        34.3799378276       17.2005480786        5.8361330811
  C        35.6715141236       17.0966983769        5.1070639990
  C        35.8620715131       16.1343104539        4.1025263624
  C        37.0597510844       16.0900787176        3.3928230584
  C        38.0965393244       17.0054618563        3.6647584971
  C        37.9080074450       17.9414585637        4.7001057505
  C        36.7117289283       17.9916457937        5.4079984983
  C        39.3583913772       17.0104077970        2.8907075926
  C        39.3622444528       17.0485897071        1.4688913745
  C        38.1601119461       17.1881154090        0.7063348313
  C        20.3303525915       17.9383105250        0.7716343484
  C        20.3503123391       17.9336819673        3.5847846625
  C        34.4822648845       17.2473377197       10.1765169758
  C        35.7863625481       17.1711865876       10.8934313255
  C        35.9988500163       16.1792824104       11.8629699659
  C        37.1842977368       16.1527640955       12.5907763976
  C        38.1852353238       17.1187682050       12.3712165211
  C        37.9794444501       18.0863196531       11.3699582226
  C        36.7921156682       18.1169219766       10.6429705400
  C        39.4286310910       17.1272972090       13.1723110799
  C        39.3982532904       17.1102746209       14.5934181315
  C        38.1770282384       17.2162819910       15.3300762929
  C        35.1074716471       26.6520483025       15.3075104300
  C        35.1692110900       26.6598916600       12.4972333589
  C        26.5602328206       17.8162721310       10.3226265349
  C        25.2512854469       17.8605712140       11.0332089103
  C        24.9691529125       18.8949953109       11.9393151841
  C        23.7536037792       18.9191894728       12.6173886969
  C        22.7898529413       17.9126555149       12.4083860515
  C        23.0657956320       16.9022176973       11.4696641549
  C        24.2830301696       16.8734883992       10.7922652417
  C        21.5257210906       17.9006449181       13.1811095880
  C        21.5512446559       17.9041421543       14.6021738344
  C        22.7709737221       17.8001107617       15.3435494736
  C        14.0458725496       17.8279657897       10.2897608185
  C        15.3496300339       17.8829664355       11.0172422108
  C        15.6086480775       18.8888157982       11.9613591648
  C        16.8173044038       18.9086829705       12.6549822643
  C        17.8011150290       17.9252706202       12.4268936244
  C        17.5464033765       16.9426310037       11.4516118434
  C        16.3373525664       16.9185316165       10.7592563229
  C        19.0704209821       17.9093347596       13.1957299803
  C        19.0698617792       17.9133767562       14.6182085573
  C        17.8626770072       17.8165709466       15.3793277184
  C        46.8074497044       17.2193487662       10.1601257076
  C        45.5217493652       17.1589302655       10.9108459843
  C        45.3195085014       16.1781171697       11.8940262164
  C        44.1411777184       16.1587267017       12.6346998506
  C        43.1363158675       17.1206531463       12.4140043533
  C        43.3369869864       18.0828899197       11.4057522372
  C        44.5157006705       18.1056961366       10.6654559406
  C        41.8826128074       17.1240688697       13.1998084546
  C        41.8815888520       17.0988401255       14.6215383153
  C        43.0860665973       17.1836294368       15.3881703407
  C        20.3166145652       17.9283479898       15.3267543540
  C        20.2946633008       17.8831808294       12.5135217025
  C        46.7805707173       17.2263975806        5.8915867753
  C        45.4733476816       17.1022056696        5.1831521079
  C        45.2634858980       16.0939573953        4.2294151587
  C        44.0730985045       16.0445678089        3.5077664501
  C        43.0599247675       16.9993511870        3.7220820491
  C        43.2595586865       17.9763404861        4.7158162835
  C        44.4519501486       18.0326020675        5.4323536439
  C        41.8144515764       17.0042818490        2.9199662062
  C        41.8468918977       17.0352985683        1.4984424475
  C        43.0693867394       17.1528493825        0.7647109962
  C        46.1535149254       26.6374174285        0.7262734282
  C        46.1624505117       26.6563445737        3.5359307129
  C        14.0447254424       17.8313811005        5.7091152670
  C        15.3657085105       17.9052356989        5.0187819145
  C        15.6411875428       18.9238076966        4.0944484841
  C        16.8706517533       18.9612453706        3.4406847239
  C        17.8512598583       17.9790298954        3.6855637740
  C        17.5824911826       16.9888613266        4.6477946399
  C        16.3551956614       16.9511648946        5.3053334970
  C        19.1185277793       17.9549591327        2.9172408671
  C        19.0950208427       17.9350687157        1.4958882989
  C        17.8751006269       17.8262239928        0.7554058509
  C        28.8017927355       14.0856293801       10.3933310324
  C        28.1841652464       12.9118836876       11.0749172769
  C        28.9008795148       12.1772048895       12.0314180679
  C        28.2987382885       11.1043575915       12.6832310923
  C        26.9642226175       10.7424640671       12.4068369733
  C        26.2701283529       11.4564818355       11.4132028067
  C        26.8707806211       12.5287490400       10.7575015412
  C        26.2948785271        9.6682347425       13.1767555202
  C        26.2998621074        9.6991487848       14.5982491287
  C        26.8046387194       10.8181693084       15.3331918290
  C        32.1821813445       21.2380749530       10.1506952921
  C        32.7722284001       22.4022756603       10.8709891066
  C        32.0183634220       23.0828002821       11.8404440086
  C        32.5846731397       24.1248199519       12.5682969606
  C        33.9202328467       24.5160088394       12.3494528892
  C        34.6560042774       23.8539967063       11.3478604858
  C        34.0929297193       22.8064093292       10.6214968029
  C        34.5442806256       25.5929229061       13.1528659730
  C        34.5212095208       25.5676722657       14.5753691469
  C        34.0060197895       24.4543927927       15.3112175317
  C        25.7074794011        8.6200013545       15.3296301091
  C        25.6496326985        8.6145041953       12.5160355586
  C        32.0794796994       21.1964952165        5.8719518881
  C        32.6426402086       22.3665721075        5.1420677865
  C        31.9134969995       23.0005506611        4.1232248238
  C        32.4834959020       24.0425326805        3.3944444025
  C        33.7967941664       24.4803302099        3.6608333415
  C        34.5045652398       23.8611819286        4.7103240094
  C        33.9406119068       22.8162717865        5.4359870511
  C        34.4380120204       25.5627138067        2.8779075340
  C        34.4661850860       25.5523719469        1.4545613809
  C        33.9791256195       24.4473019789        0.6882710436
  C        40.6133387686       17.0393534838        0.7676577419
  C        40.5790975005       17.0064533728        3.5774267989
  C        28.8361883847       14.1389661755        5.7595461999
  C        28.2466898155       12.9850381389        5.0165992958
  C        28.9573555561       12.3140783935        4.0089393757
  C        28.3798219612       11.2339725967        3.3409859626
  C        27.0737128910       10.7966377930        3.6482867385
  C        26.3828810309       11.4586660491        4.6814311459
  C        26.9578844105       12.5345903422        5.3528959370
  C        26.4177880272        9.6956768849        2.8967414312
  C        26.3649921711        9.7121449125        1.4747872890
  C        26.8335457143       10.8256635524        0.7086542822
  C        18.1358210955        3.1808874810       10.3169913963
  C        17.4066816107        4.2782722222       11.0157878350
  C        16.3905762926        3.9999370909       11.9428722620
  C        15.7428556696        5.0399129899       12.6064162853
  C        16.0951663469        6.3835899932       12.3671696242
  C        17.0850527850        6.6531070601       11.4039295232
  C        17.7341474558        5.6157625337       10.7388434381
  C        15.4706883974        7.4912701650       13.1301923422
  C        15.4858456572        7.4905947532       14.5519137768
  C        16.1873180926        6.4969375139       15.3051044490
  C        42.9457907957       31.8595783401       10.0728215756
  C        43.6461423817       30.7718634974       10.8168145429
  C        44.5918762199       31.0931573797       11.8026970920
  C        45.1976052897       30.0876006168       12.5503426499
  C        44.8709959816       28.7345570035       12.3356423866
  C        43.9449425805       28.4202334814       11.3226336926
  C        43.3361084976       29.4253925474       10.5746108614
  C        45.4886079804       27.6552623822       13.1388506578
  C        45.4929277185       27.6809860930       14.5605538603
  C        44.8059412511       28.6891204444       15.3071522507
  C        14.8567446161        8.5630323975       15.2642547116
  C        14.8752931863        8.5629526237       12.4515821032
  C        42.9464457609       31.9618748478        5.8090369548
  C        43.6917035043       30.8857365305        5.0954659058
  C        44.6565788434       31.1916357513        4.1234426603
  C        45.2781127703       30.1720527953        3.4056941130
  C        44.9540738937       28.8217527419        3.6430517677
  C        44.0202241109       28.5240788756        4.6534804976
  C        43.3919530799       29.5408441080        5.3656684412
  C        45.5631960625       27.7243397330        2.8578358546
  C        45.5335586711       27.7176107621        1.4365301475
  C        44.8272620473       28.7078343149        0.6835460216
  C        35.0818825510       26.6428030976        0.7533888794
  C        35.0503220027       26.6200480352        3.5640712374
  C        18.1489596867        3.2469303151        5.7067001776
  C        17.4302156742        4.3438624674        4.9975627262
  C        16.4148196823        4.0525315754        4.0742139693
  C        15.7664647310        5.0831044963        3.3987588397
  C        16.1212609864        6.4283360543        3.6212510372
  C        17.1128065603        6.7117889623        4.5783089517
  C        17.7605533650        5.6829261343        5.2581184242
  C        15.4907050454        7.5239977269        2.8487467126
  C        15.4966608604        7.5074308417        1.4276002619
  C        16.1934363834        6.5057200857        0.6809232503
  H        10.6724765044       12.4661030481        3.9040502637
  H        11.6946506053       10.5512291244        2.6623108081
  H        15.3911614171       11.1677474782        4.7730346736
  H        14.3507277187       13.0705913976        6.0181999713
  H        13.3760284949       11.6309717690        1.2013143118
  H        50.3227533704       22.7485621497        3.9869070572
  H        49.3196733688       24.6230829757        2.6809778649
  H        45.6421757320       24.1613962949        4.8638194671
  H        46.6629024982       22.2903585798        6.1719256277
  H        47.6298763482       23.5760275529        1.2463066129
  H        14.8720289764        8.5880300616        4.6086209146
  H        50.2868572160       22.7025148949       12.0602836574
  H        49.2688659156       24.5752725282       13.3604271072
  H        45.6103217613       24.1091587686       11.1459592776
  H        46.6524009046       22.2540044692        9.8315430571
  H        47.6077046965       23.5518141367       14.7970186498
  H        40.6744991250       17.1375284070       11.4263810537
  H        48.6871306457       14.0947826845        7.8000357368
  H        10.6816006638       12.4669866655       12.0939566251
  H        11.6899110980       10.5251813411       13.2976928840
  H        15.3929798758       11.1576842221       11.2042556274
  H        14.3643729533       13.0859797103        9.9888397119
  H        13.3758280648       11.6220004913       14.7531642337
  H        47.9302575986       14.2177151470        9.7106504065
  H        47.7800481267       14.3737436412        6.4952678411
  H        49.0838089571       18.5527343351       10.8671736749
  H        10.4158775405       14.1343340368        7.9986126700
  H        24.5315764146        3.0354222437        3.9523741877
  H        25.7036858878        4.8871927337        2.7528588717
  H        23.3146903793        7.7647691467        4.8758062229
  H        22.1594368701        5.9031481653        6.0770081819
  H        23.8661629367        5.8005114272        1.3264619176
  H        36.3584810759       32.1927621034        3.9849519717
  H        35.2097572306       30.3754715962        2.7191132728
  H        37.4663227463       27.4384385153        4.9059582995
  H        38.5949381714       29.2688760346        6.1820357193
  H        36.9771606903       29.4577520082        1.3014438768
  H        25.8754592311        8.6130296695        4.6738538282
  H        36.4533553887       32.2442346852       12.1136542796
  H        35.3378135219       30.4337411191       13.4127310953
  H        37.5342123895       27.4875149901       11.1755215809
  H        38.6240209154       29.3098411968        9.8630364261
  H        37.0137081605       29.4767913897       14.8545713448
  H        46.1089501407       26.5873577739       11.3855724407
  H        44.6682132471       35.1161414217        7.8138527501
  H        24.4104318633        3.0399160540       12.1200844747
  H        25.5304794685        4.8746296383       13.3841480121
  H        23.1503320519        7.7686103009       11.2728361067
  H        22.0430626018        5.9216697861       10.0073093730
  H        23.7981512729        5.7987457825       14.8797625612
  H        44.9537657269       34.3906875162        9.6953933089
  H        44.9007277252       34.2065266636        6.4905647669
  H        40.6659053166       33.2092776614       10.8531037768
  H        23.1512306382        1.9581178123        8.0076290554
  H        25.8026318645       19.6618004443        3.9386427022
  H        23.6385960310       19.7071770042        2.7039933104
  H        22.3509953834       16.2038166857        4.8417642869
  H        24.5228417773       16.1690202779        6.0742077324
  H        23.7260652577       17.6928355754        1.2484327010
  H        35.0575215187       15.4364804431        3.8815922815
  H        37.2047220629       15.3387244340        2.6196921331
  H        38.6993275210       18.6561189902        4.9163540086
  H        36.5520803786       18.7313268887        6.1886630711
  H        37.2173761215       17.3069202768        1.2323261763
  H        20.3562591670       17.9684848989        4.6728195109
  H        35.2142224056       15.4490438759       12.0458058511
  H        37.3472915239       15.3810913830       13.3398877816
  H        38.7460766752       18.8387124427       11.1966646205
  H        36.6119755370       18.8818669118        9.8913642521
  H        37.2477283995       17.3546844658       14.7849474011
  H        35.1534518277       26.6831552161       11.4091963964
  H        28.5144656749       21.0823983966        7.8741778984
  H        25.7100768801       19.6779001050       12.0872794899
  H        23.5333140535       19.7238561096       13.3157035542
  H        22.3292912873       16.1185150810       11.3044854441
  H        24.5125522755       16.0822536209       10.0824446378
  H        23.7032226487       17.6802603280       14.7995469202
  H        28.9589456943       21.7317370968        9.7756399511
  H        29.1740632003       21.7238102548        6.5437999429
  H        32.1033880780       18.5527480177       10.9915895631
  H        27.4236586439       19.0881341781        8.0792038993
  H        14.8524607630       19.6509442495       12.1360332739
  H        17.0144866219       19.6954106428       13.3800583842
  H        18.2949509582       16.1748229814       11.2668901090
  H        16.1294012759       16.1469919586       10.0217037677
  H        16.9202182047       17.7005036524       14.8520974018
  H        46.1023658757       15.4441141690       12.0696703961
  H        43.9829874736       15.3892390029       13.3870758382
  H        42.5690079083       18.8338943615       11.2326339400
  H        44.6874321859       18.8615921268        9.9027463083
  H        44.0304492480       17.3076490859       14.8658505643
  H        20.2889433597       17.9031934129       11.4251637277
  H        46.0500462454       15.3636872297        4.0536562872
  H        43.9165152208       15.2628612257        2.7675620118
  H        42.4834233277       18.7189226276        4.8891417415
  H        44.6251121469       18.8073664143        6.1754177122
  H        44.0009888798       17.2523306649        1.3141713285
  H        46.1991593307       26.6828977664        4.6233813049
  H        52.7410469225       21.0626423430        8.1946956921
  H        14.8821078696       19.6796551431        3.9053268517
  H        17.0841751413       19.7539642385        2.7268710941
  H        18.3312101968       16.2240485603        4.8437130456
  H        16.1316061544       16.1743217476        6.0324493674
  H        16.9418431450       17.7176456540        1.2997586468
  H        52.3222316791       21.6732517673        6.2944020317
  H        52.0131154048       21.7019955502        9.4957273930
  H        49.0662874011       18.6069611350        5.2042968935
  H        13.2472031649       19.0165658045        7.9776161020
  H        29.9264725201       12.4639428354       12.2528690554
  H        28.8569748675       10.5353112697       13.4234169374
  H        25.2393822071       11.1881562828       11.1906337590
  H        26.3305582773       13.1009205397       10.0072840588
  H        27.1435801035       11.6929682990       14.7865953909
  H        30.9925944995       22.7698775163       12.0199633284
  H        31.9945400963       24.6499737649       13.3161227834
  H        35.6896653031       24.1450855392       11.1725263538
  H        34.6688026856       22.2714108767        9.8698876484
  H        33.6571245507       23.5827859011       14.7648484626
  H        25.6670645290        8.5898283997       11.4278544480
  H        30.9068220224       22.6521608048        3.9027771879
  H        31.9098830836       24.5322192871        2.6105720031
  H        35.5207475138       24.1855213446        4.9247147783
  H        34.4979118802       22.3173821688        6.2252001595
  H        33.6097209725       23.5697388130        1.2112526215
  H        40.5668203059       16.9565209989        4.6646352893
  H        32.5324582730       14.1284879088        8.3581402096
  H        29.9630806682       12.6481339020        3.7629969255
  H        28.9440033481       10.7127432345        2.5706428433
  H        25.3722825814       11.1410104318        4.9298193253
  H        26.4159310292       13.0540179661        6.1391439754
  H        27.1922772697       11.7076065734        1.2310158926
  H        33.2810695325       14.1081916375        6.4803797393
  H        33.4053863874       14.4280353506        9.6973983699
  H        32.1424783285       18.4667706485        5.0594672302
  H        30.2339602515       14.1800474752        8.1306358662
  H        16.1182018219        2.9634460435       12.1289054869
  H        14.9531018755        4.8205171721       13.3217402294
  H        17.3678838257        7.6859527687       11.2112557664
  H        18.5165665828        5.8183605495       10.0113856095
  H        16.7538295097        5.7395644877       14.7715963645
  H        44.8282896385       32.1402280476       11.9767802139
  H        45.9376142652       30.3413513425       13.3061492013
  H        43.6820354745       27.3781899313       11.1526773778
  H        42.5993122037       29.1900743669        9.8101073329
  H        44.2305810493       29.4368667000       14.7688209834
  H        14.8515410046        8.5460902117       11.3633621872
  H        44.9003317005       32.2343045506        3.9321877027
  H        46.0252526217       30.4132925581        2.6526903825
  H        43.7629633712       27.4843743453        4.8447863589
  H        42.6451333064       29.3180378937        6.1237986831
  H        44.2687913428       29.4707632987        1.2181149729
  H        35.0024482356       26.6335564982        4.6513447961
  H        36.6052822223       35.1340144001        8.1809306891
  H        16.1436418539        3.0129447173        3.9046913750
  H        14.9740301577        4.8561812716        2.6888168951
  H        17.3964749792        7.7472522244        4.7549603974
  H        18.5436318048        5.8934006537        5.9826622602
  H        16.7647561874        5.7554165159        1.2193993908
  H        36.2791589273       34.4820499369        6.2733838905
  H        36.3819101476       34.2087052784        9.4997284195
  H        40.5791965485       33.2024266006        5.1540753810
  H        17.4718772059        1.9470573400        7.9742622891
  H        28.6262029942       18.5683140549       12.0076610636
  H        28.7120399232       18.6343429807        3.7689867761
  H        31.3272279074       15.5107842546       12.5279527793
  H        27.8907175518       18.8105619304       14.4790293410
  H        29.4445128398       15.3910164606       14.4945188377
  H        32.5673996127       17.5401536672        1.2305821060
  H        18.8539142278        0.8689143806       12.3355503715
  H        40.5275235175       35.2290175436        3.9519292612
  H        42.3248855430       34.4194676713        3.5905578428
  H        22.0880183775        0.6922394236       12.3509551043
  H        11.5967992112       18.7132223764       12.3823818553
  H        52.2652222591       18.4308750484        3.6775676121
  H        49.2553285615       16.4772544828        3.5842138882
  H        10.1500564953       15.7982514761       12.2931015611
  H        50.8501523773       17.6925524379        3.9542681802
  H        10.0460443118       17.3945078097       12.0519853825
  H        20.2155225481        0.0023836655       12.0419365521
  H        39.1835341174       36.1244014160        3.6863731011
 Ni        30.5621715562       17.8921235875        2.4975982229
 Ni        30.9451042642       16.5471117534       -0.0844049962
 Ni        29.5859392625       18.4113329731        0.2518209036
 Ni        30.1431271022       17.3015240709       13.2401048640
  O        10.6498451408       14.3651807521        5.4858062333
  O        12.6131204568       14.6575052015        6.5838706324
  O        49.1479001331       16.8460868485        7.9895323110
  O        50.3502062374       20.9359686230        5.6481563280
  O        48.3485154409       20.5932318230        6.6658564953
  O        11.0515601915       17.0539629858        6.5005936515
  O        50.3209004380       20.8816235788       10.4067844382
  O        48.3467080108       20.5866259805        9.3269695036
  O        49.5436744151       18.2484515926       10.0680780460
  O        12.3588502732       18.6245896626        7.9997408666
  O        48.6932706897       14.1486018663        6.7512939267
  O         8.2099950491       14.2102570826        9.3224218295
  O        10.7354215888       14.5067200293       10.6643389115
  O        12.5718151876       14.5828458967        9.3284934362
  O        22.8464457462        2.0464784726        5.4860296478
  O        21.6092147882        3.5952949303        6.5866289885
  O        42.0580095987       34.1375002797        7.9786397365
  O        37.9812997231       33.1370434433        5.5725946927
  O        39.2173894640       31.5754538826        6.6658090085
  O        20.3086643514        1.0400557913        6.5022578971
  O        38.0243341134       33.1849371094       10.4157156712
  O        39.2181303962       31.5827265931        9.3277696510
  O        40.6522554272       33.7693455832       10.0600353698
  O        18.2565111521        1.3757970350        7.9967792414
  O        44.6221976056       35.1006149629        6.7586713102
  O        24.2053084549        0.0001563635        9.3207253998
  O        22.7531446599        2.0583072559       10.5848282401
  O        21.6255297975        3.5974728139        9.3453452504
  O        27.4897580191       18.7434913522        5.4939421509
  O        26.7683233688       16.9275237848        6.6579126592
  O        30.6965190134       19.3416513206        8.0036630653
  O        33.4659578004       16.3299864245        5.5733459479
  O        34.2614948531       18.1661056423        6.6650535044
  O        29.5966560890       17.0285309025        6.5907024961
  O        33.6231324777       16.3341241831       10.4096727784
  O        34.3049843201       18.2497469189        9.3984173998
  O        31.6525760315       18.3175482820       10.1624010190
  O        30.3322040510       15.1465806138        8.1485198336
  O        28.5539516805       21.0281363806        6.8282231440
  O        28.5170466082       20.9507119415        9.4028005124
  O        27.4502833320       18.6752890765       10.6565512380
  O        26.6911845565       16.9284351904        9.4107441558
  O        13.1487866517       18.6929386569       10.5876518086
  O        13.9194151438       16.9161640873        9.4052071887
  O        50.5957273842       19.3501739902        8.0202664289
  O        47.6850743276       16.3264569210       10.4167283788
  O        46.9520278404       18.1756434712        9.3245438163
  O        11.0697112739       17.0156358560        9.4897062808
  O        47.6757976735       16.3355906444        5.6536476039
  O        46.9228340339       18.2352973248        6.6619028859
  O        49.5685025774       18.3177352574        5.9821480737
  O        10.3186533903       15.1002031988        7.9970742616
  O        52.6707534604       21.0279119688        9.2418402378
  O        12.1468409171       20.8911950551        6.6731908615
  O        13.1080661889       18.6137042339        5.3256742726
  O        13.9570225574       16.9868257895        6.6656865969
  O        29.9838080653       14.4347551559       10.7342369952
  O        28.0858716371       14.6550490999        9.4937173328
  O        32.1485766768       16.8579827354        8.0860234048
  O        30.9657480458       20.9425780743       10.4111146318
  O        32.9454701241       20.6037636078        9.3366726042
  O        29.5675955501       17.0800612958        9.5779654881
  O        30.8567927312       20.8744069889        5.6486837282
  O        32.8724159383       20.5760110155        6.6610080202
  O        31.6362744524       18.1781626379        5.8369186690
  O        28.3032271719       18.6763828221        8.0672392209
  O        32.4962463941       14.2113107208        9.4155080903
  O        32.4117794770       14.2078203207        6.9019861490
  O        29.9932678334       14.5820000657        5.4135436565
  O        28.1364784151       14.5877727204        6.7369441230
  O        17.8893511106        1.9666544989       10.6627382820
  O        18.9565105666        3.5271057573        9.4077515529
  O        39.1685819959       34.1385803649        7.9971620073
  O        43.2801882479       33.0589874795       10.3316670724
  O        42.0344100902       31.5065011656        9.2415991217
  O        20.3180640813        1.0373445871        9.4796767971
  O        43.2761313624       33.1828462961        5.5749571366
  O        42.0052565163       31.5842127666        6.5829641685
  O        40.5792612367       33.7755123920        5.9359180241
  O        22.3677329154        1.3853957361        7.9976674396
  O        36.6729078521       35.0997009612        9.2334721781
  O        16.4457266712        0.0642837947        6.6682406916
  O        17.9365418276        2.0434512847        5.3264874614
  O        18.9195860094        3.5931444755        6.6659515081
  O        29.6552789972       18.6918919692        4.0071571116
  O        29.5725680540       18.8317564413       12.0877953012
  O        31.3521845025       16.3365759408       12.0030698758
  O        31.8521911784       16.9309454798        1.4997459952
  O        30.3362714168       15.7558131230       14.3426521304
  O        28.7280173616       19.2752030197       14.6607265230
  O        39.4566409731       35.2437857524        4.0019801134
  O        19.1420058351        0.0046801529       11.9904260467
  O        41.9697253137       35.1729032581        4.0872931492
  O        21.6913678053       -0.0693279972       11.8957427771
  O        51.3654030399       18.6143021998        4.0054621899
  O        10.7510015778       18.7472635740       11.9048441020
  O        50.0796319673       16.4128630045        4.0916771009
  O         9.5243892742       16.4831214725       11.9912339590
 Zr         9.2965003622       16.0528260628        6.1822542029
 Zr        49.8363036134       16.0065566829        9.7464169986
 Zr        22.0733797497        0.0309881963        6.1884464169
 Zr        42.4608533167       35.1535702584        9.8005725698
 Zr        29.6020565404       19.0512685651        6.1913701698
 Zr        29.6051696440       19.1915804876        9.8363611764
 Zr        11.0373730215       19.0521289845        9.8275199551
 Zr        11.0434163480       19.1550020719        6.2511696118
 Zr        31.3363438878       16.0991695890        9.9421309514
 Zr        31.4243028409       16.0105646346        6.4108065228
 Zr        18.6013918899       -0.0015993633        9.7634183511
 Zr        18.5066127465       -0.0079157517        6.2138668138
 Zr        12.3014262349       16.3233919051        7.9903017087
 Zr        48.6154576189       18.8330047649        8.0093297577
 Zr        20.3171464839        2.4746958214        7.9899098275
 Zr        40.6429572133       32.6866991644        7.9781027907
 Zr        28.3553291237       16.3379506982        8.0941562186
 Zr        32.6496667012       18.8530827565        8.0488044897
  H        29.3181705571       17.5420470092        1.4874275437
  H        29.1913275960       19.3256492490       13.7630660604
