     569
 i =       25, E =     -4729.4513248848
  C        11.8587309147       14.0535282997        5.7415428518
  C        12.4562009203       12.8904794487        5.0233486920
  C        11.7047162794       12.1720387883        4.0811562437
  C        12.2810685601       11.1098403167        3.3887736701
  C        13.6214241338       10.7395263264        3.6169922320
  C        14.3543094927       11.4425461512        4.5910895600
  C        13.7814565661       12.5075222166        5.2826236941
  C        14.2610088322        9.6489347679        2.8435678557
  C        14.2564084503        9.6569255961        1.4218626059
  C        13.7433041548       10.7590575818        0.6679171591
  C        49.1266563915       21.2334577675        5.8798229007
  C        48.5499112666       22.4012691214        5.1526963419
  C        49.2998291552       23.0683463507        4.1714320623
  C        48.7328902476       24.1074314418        3.4382004469
  C        47.4024514290       24.5093578590        3.6670210415
  C        46.6716343870       23.8607255628        4.6808003010
  C        47.2340785950       22.8158508185        5.4101901028
  C        46.7722670396       25.5870078504        2.8696846405
  C        46.7615317183       25.5574571182        1.4479199292
  C        47.2614107759       24.4423397383        0.7044230621
  C        14.8603749128        8.5705970416        0.7085981431
  C        14.8917191914        8.5969159485        3.5201970298
  C        49.1132460528       21.2035652168       10.1453018497
  C        48.5280573873       22.3649768224       10.8723509434
  C        49.2671289030       23.0252906239       11.8656654193
  C        48.6908395806       24.0598632251       12.5970967696
  C        47.3606135878       24.4571076115       12.3584918355
  C        46.6404143406       23.8126172599       11.3345414600
  C        47.2139062736       22.7766829133       10.6027714147
  C        46.7221856451       25.5320281732       13.1495509200
  C        46.7339685733       25.5283592672       14.5712563909
  C        47.2492337635       24.4290772389       15.3276588964
  C        40.6346833103       17.1084897547       15.3188514677
  C        40.6543918331       17.1441629688       12.5093409224
  C        11.8828915355       14.0864216013       10.2853848298
  C        12.4720284281       12.9103859323       10.9894292917
  C        11.7147228414       12.1778169131       11.9162103643
  C        12.2811905466       11.0953295632       12.5846781163
  C        13.6196992471       10.7208497843       12.3522301884
  C        14.3573285782       11.4356282405       11.3905542379
  C        13.7920402971       12.5168515510       10.7178428001
  C        14.2533640013        9.6242279763       13.1227373723
  C        14.2523627861        9.6444252732       14.5445831479
  C        13.7426670082       10.7534620315       15.2916577866
  C        22.5121443535        3.2445736858        5.7546213801
  C        23.2270392169        4.3520460591        5.0581313783
  C        24.2266222380        4.0761006735        4.1136298604
  C        24.8520399775        5.1185345101        3.4342528347
  C        24.4931263120        6.4588865681        3.6792720768
  C        23.5223184588        6.7263875042        4.6615171123
  C        22.8926451726        5.6858851124        5.3394045336
  C        25.0925061046        7.5688874801        2.9037249466
  C        25.0610530888        7.5625798510        1.4822439168
  C        24.3636033764        6.5589195936        0.7376959481
  C        38.2973776859       31.9272377601        5.8510908849
  C        37.5559333306       30.8391694309        5.1502545485
  C        36.5949988539       31.1452738318        4.1734620494
  C        35.9657450074       30.1273833197        3.4621911255
  C        36.2795574677       28.7745564138        3.7031008196
  C        37.2091393081       28.4766073698        4.7184225381
  C        37.8430943128       29.4934393187        5.4288453502
  C        35.6697656786       27.6868655224        2.9041212934
  C        35.6982205022       27.7083562784        1.4791334473
  C        36.4091608028       28.7070664067        0.7460424793
  C        25.6744514396        8.6372344819        0.7613745972
  C        25.6851500636        8.6466080109        3.5736393798
  C        38.3277526149       31.9604745421       10.1585186180
  C        37.6053687098       30.8901681414       10.9025918254
  C        36.6823690475       31.2020056606       11.9136343353
  C        36.0695739777       30.1869431845       12.6454377231
  C        36.3617642666       28.8309953888       12.3911458700
  C        37.2628975929       28.5299398382       11.3500416960
  C        37.8789874374       29.5415203561       10.6201448071
  C        35.7466122429       27.7349326180       13.1734381556
  C        35.7375994565       27.7328417127       14.5987496999
  C        36.4270286369       28.7195914382       15.3673145324
  C        46.1359344458       26.6209837877       15.2813879301
  C        46.0881229420       26.5803386433       12.4735049808
  C        22.4597784180        3.2565318543       10.2594532115
  C        23.1504079892        4.3665589628       10.9855823585
  C        24.1494306820        4.0826880029       11.9303960145
  C        24.7736194027        5.1139736511       12.6287289361
  C        24.4194801310        6.4596723461       12.4049957702
  C        23.4431897983        6.7367064876       11.4290355011
  C        22.8142766993        5.7057168431       10.7314904327
  C        25.0465605506        7.5605048582       13.1796880514
  C        25.0375997914        7.5577186204       14.6029304082
  C        24.3499508041        6.5580212943       15.3607983764
  C        26.6138599483       17.8533705769        5.7457547418
  C        25.3171936919       17.9169181962        5.0248702331
  C        25.0612579283       18.9070741268        4.0614080960
  C        23.8432526403       18.9338618013        3.3873944384
  C        22.8419449094       17.9763586457        3.6536216775
  C        23.0929705301       17.0132196559        4.6509356833
  C        24.3121878310       16.9788636600        5.3216547253
  C        21.5706458883       17.9610165517        2.8927631200
  C        21.5744721741       17.9434353397        1.4687783526
  C        22.7797998910       17.8120376616        0.7121404148
  C        34.4495797801       17.1852935028        5.9170315679
  C        35.7366900088       17.1415501355        5.1759800243
  C        35.9358034096       16.1811825151        4.1703032206
  C        37.1145222840       16.1706615460        3.4321756421
  C        38.1289984916       17.1165160381        3.6802670172
  C        37.9334704151       18.0551228488        4.7121541503
  C        36.7507789559       18.0738826779        5.4463947070
  C        39.3811233270       17.1251436097        2.8937475010
  C        39.3764728123       17.1330801401        1.4711762461
  C        38.1707571622       17.2575367350        0.7129839564
  C        20.3290952944       17.9626070902        0.7585772932
  C        20.3448524159       17.9535659892        3.5736379106
  C        34.4801197728       17.2360384940       10.1837576195
  C        35.7800101926       17.1609404822       10.9018353543
  C        35.9855916391       16.1824075421       11.8865446575
  C        37.1712855338       16.1601753274       12.6137010775
  C        38.1786473399       17.1156022411       12.3766373073
  C        37.9792833442       18.0677123373       11.3593131523
  C        36.7917583464       18.0956572991       10.6340271657
  C        39.4236397820       17.1308954435       13.1733938810
  C        39.3979965439       17.1371654624       14.5949731510
  C        38.1807351094       17.2580394086       15.3356685163
  C        35.0952895347       26.6569876821       15.2991954446
  C        35.1654628447       26.6606663543       12.4878132285
  C        26.5740805851       17.7845998566       10.3359232916
  C        25.2730430564       17.8492871742       11.0444365350
  C        25.0092035299       18.8643060722       11.9791814119
  C        23.7892603681       18.9003486492       12.6468455981
  C        22.7982356534       17.9273156105       12.4009328811
  C        23.0550995108       16.9417204798       11.4286778886
  C        24.2767599572       16.8985464272       10.7633288524
  C        21.5335078200       17.9185192807       13.1682503285
  C        21.5554099311       17.9215499047       14.5912233984
  C        22.7703300718       17.8016364342       15.3348400420
  C        14.0476099118       17.8309736667       10.2861655611
  C        15.3544105619       17.8934857398       11.0059691044
  C        15.6106419891       18.8984280956       11.9520455062
  C        16.8208048961       18.9229680837       12.6422331437
  C        17.8099119988       17.9458528530       12.4083553289
  C        17.5588725901       16.9663987672       11.4285296678
  C        16.3479084946       16.9370904302       10.7401693901
  C        19.0776011310       17.9299182239       13.1779069349
  C        19.0735562249       17.9363177680       14.6022936367
  C        17.8666553435       17.8384651954       15.3611298714
  C        46.8064410858       17.2176714967       10.1582379329
  C        45.5181702405       17.1536642290       10.9037782458
  C        45.3154408141       16.1743650032       11.8884641718
  C        44.1352835992       16.1542492640       12.6261214184
  C        43.1288617623       17.1134416588       12.4004785640
  C        43.3288853148       18.0721316209       11.3887687995
  C        44.5096910131       18.0961846634       10.6519975682
  C        41.8773328436       17.1233172293       13.1890625435
  C        41.8821351368       17.1185084052       14.6112165401
  C        43.0904624728       17.2090291806       15.3702514077
  C        20.3189566704       17.9515305428       15.3133127869
  C        20.3027704965       17.8997551764       12.4988689489
  C        46.7858655533       17.2306152079        5.8900534292
  C        45.4831191976       17.1235606092        5.1761842650
  C        45.2650043537       16.1241023152        4.2158048170
  C        44.0774704231       16.0971579172        3.4893842084
  C        43.0790343363       17.0665426434        3.7065766259
  C        43.2871820454       18.0350592567        4.7063532943
  C        44.4758225690       18.0684737049        5.4278530820
  C        41.8345409141       17.0904093697        2.9088177891
  C        41.8604642525       17.1002012495        1.4873059155
  C        43.0800693266       17.1978694946        0.7474223577
  C        46.1536003730       26.6373676997        0.7261478115
  C        46.1621512630       26.6560636720        3.5357822405
  C        14.0444401633       17.8321303735        5.7080739307
  C        15.3639376877       17.9091297693        5.0152098460
  C        15.6314895931       18.9249140446        4.0850289059
  C        16.8584855703       18.9666620485        3.4271001329
  C        17.8467804727       17.9922404821        3.6737910631
  C        17.5854857375       17.0048855067        4.6416586692
  C        16.3601694251       16.9623793965        5.3027970929
  C        19.1138492436       17.9736011736        2.9053995646
  C        19.0924682432       17.9577211598        1.4818151046
  C        17.8759430443       17.8476643185        0.7389364504
  C        28.8055837093       14.0877138877       10.3957840642
  C        28.1884310578       12.9193743338       11.0813791439
  C        28.8952062884       12.2031252171       12.0594249890
  C        28.2911872920       11.1322735174       12.7124096400
  C        26.9659289542       10.7538914368       12.4138828661
  C        26.2827910807       11.4503797483       11.4003910102
  C        26.8840542432       12.5213835884       10.7449789916
  C        26.2915966373        9.6784059162       13.1754078250
  C        26.2706348503        9.7114478080       14.5966069211
  C        26.7572621205       10.8326483332       15.3409740475
  C        32.1838056648       21.2337585245       10.1458624127
  C        32.7644773018       22.4032721917       10.8597736197
  C        32.0148952803       23.0761092222       11.8391807806
  C        32.5800284708       24.1180521357       12.5667989255
  C        33.9110148727       24.5221122016       12.3382485083
  C        34.6399339330       23.8711552044       11.3230516126
  C        34.0791806218       22.8219495953       10.5983348931
  C        34.5353047050       25.5962128285       13.1420283551
  C        34.5087929585       25.5724594387       14.5665076785
  C        33.9979010808       24.4590791346       15.3012636491
  C        25.6677931684        8.6305494069       15.3163448611
  C        25.6614640319        8.6226318544       12.5029087295
  C        32.0969670522       21.1671717516        5.8370583574
  C        32.6501139705       22.3349150554        5.1051520945
  C        31.9204477836       22.9844031743        4.0943679347
  C        32.4890587530       24.0329248996        3.3759570243
  C        33.8023561033       24.4725680805        3.6469107205
  C        34.5078840711       23.8437684922        4.6935978021
  C        33.9470954081       22.7890751986        5.4052370014
  C        34.4419885612       25.5573363254        2.8712845553
  C        34.4598195884       25.5536846005        1.4458537554
  C        33.9739439109       24.4505650591        0.6796391864
  C        40.6233765402       17.1027016967        0.7633669089
  C        40.6043797534       17.1227214330        3.5734127895
  C        28.7221300940       14.0942315717        5.8137722000
  C        28.1042282024       12.9496844962        5.0860576668
  C        28.8276572217       12.2758013703        4.0892532402
  C        28.2473203614       11.2183779948        3.3944087171
  C        26.9267458523       10.8074551760        3.6679703124
  C        26.2216393224       11.4689455063        4.6916389412
  C        26.8000421143       12.5275340995        5.3897265826
  C        26.2863469737        9.7155778399        2.8959287601
  C        26.2700036133        9.7302903413        1.4735114491
  C        26.7546712333       10.8432951551        0.7171421575
  C        18.1354007644        3.1805405059       10.3171447597
  C        17.4059633907        4.2779377874       11.0158123477
  C        16.3903254516        3.9995290829       11.9433537464
  C        15.7425209277        5.0394790844       12.6068745287
  C        16.0942796197        6.3831995202       12.3671069872
  C        17.0836139219        6.6527709505       11.4033264671
  C        17.7327718477        5.6154449681       10.7382814718
  C        15.4699253328        7.4909257619       13.1301110438
  C        15.4854611217        7.4904687418       14.5518242785
  C        16.1871582025        6.4969453687       15.3049887753
  C        42.9457683125       31.8595173593       10.0727419859
  C        43.6462478066       30.7718611927       10.8167697838
  C        44.5921689038       31.0932167890       11.8024366719
  C        45.1979220055       30.0877047493       12.5501205428
  C        44.8711666100       28.7346801476       12.3355942951
  C        43.9448548103       28.4202987541       11.3228607181
  C        43.3359327416       29.4254186789       10.5748554334
  C        45.4888937673       27.6554388949       13.1387723086
  C        45.4931393379       27.6810647660       14.5604720282
  C        44.8059548884       28.6890726222       15.3070561364
  C        14.8565115888        8.5630000278       15.2641572854
  C        14.8744196524        8.5625466270       12.4515056582
  C        42.9462389539       31.9615035190        5.8090516042
  C        43.6914380132       30.8853624652        5.0953814639
  C        44.6564445094       31.1912856863        4.1235143388
  C        45.2779548128       30.1717196228        3.4057303676
  C        44.9537570114       28.8214415718        3.6429403583
  C        44.0196897444       28.5237454003        4.6531459805
  C        43.3914072666       29.5404989893        5.3653449456
  C        45.5629488218       27.7240883118        2.8577147758
  C        45.5334809673       27.7174621947        1.4364089085
  C        44.8271511166       28.7076825864        0.6834526747
  C        35.0727351418       26.6461651593        0.7457080886
  C        35.0636099366       26.6091124329        3.5586437175
  C        18.1486783567        3.2467256420        5.7067363076
  C        17.4300247921        4.3437543244        4.9973631426
  C        16.4148818652        4.0524864202        4.0737685808
  C        15.7665887901        5.0831128850        3.3983036584
  C        16.1211891743        6.4283371598        3.6210702066
  C        17.1125551407        6.7117221922        4.5783259777
  C        17.7601897188        5.6827948420        5.2581437505
  C        15.4906957604        7.5240584374        2.8486297440
  C        15.4966741473        7.5075321329        1.4274879319
  C        16.1934703287        6.5058391260        0.6808034957
  H        10.6727597332       12.4665668755        3.9037638035
  H        11.6949131077       10.5517268120        2.6618435225
  H        15.3911222932       11.1674314543        4.7732902050
  H        14.3506725966       13.0703575728        6.0185489572
  H        13.3763318829       11.6312221670        1.2011908301
  H        50.3224247667       22.7480684214        3.9865035329
  H        49.3192189670       24.6224817800        2.6803614617
  H        45.6422212228       24.1616706057        4.8641354409
  H        46.6631047957       22.2907968740        6.1724425225
  H        47.6296343043       23.5758083324        1.2460720614
  H        14.8719031592        8.5880159740        4.6085021479
  H        50.2869776922       22.7020230213       12.0608981292
  H        49.2690419222       24.5749778544       13.3609676847
  H        45.6111657826       24.1102020310       11.1451696835
  H        46.6531607828       22.2548343569        9.8309413810
  H        47.6077773130       23.5518326081       14.7968130215
  H        40.6613817672       17.1147315142       11.4214608955
  H        48.6871501003       14.0948292871        7.8000984667
  H        10.6814885959       12.4674397932       12.0941070200
  H        11.6895281555       10.5254448833       13.2978899110
  H        15.3924524235       11.1570186938       11.2039862388
  H        14.3641321969       13.0856767058        9.9886935043
  H        13.3758132304       11.6220663956       14.7530234019
  H        47.9301507756       14.2186481116        9.7104872490
  H        47.7801395439       14.3742040955        6.4953765664
  H        49.0833616761       18.5522577630       10.8672274255
  H        10.4160789472       14.1342664814        7.9986049918
  H        24.4906834797        3.0384674884        3.9217269685
  H        25.6269926259        4.9043864796        2.7014288912
  H        23.2378242612        7.7582334808        4.8568443372
  H        22.1206104298        5.8826866689        6.0792263912
  H        23.8079617629        5.7989455572        1.2792695785
  H        36.3660625333       32.1893600119        3.9733341323
  H        35.2222501831       30.3714918686        2.7065883946
  H        37.4618191154       27.4364572144        4.9138425423
  H        38.5865237123       29.2674883185        6.1897417705
  H        36.9756679709       29.4542865204        1.2939356178
  H        25.7253248065        8.6268036060        4.6612414585
  H        36.4655013694       32.2471041386       12.1228528381
  H        35.3485885895       30.4372383478       13.4204868895
  H        37.5037075679       27.4887584967       11.1457587265
  H        38.5966692122       29.3107463292        9.8365706721
  H        37.0082685099       29.4758476464       14.8477289161
  H        46.1093420293       26.5877127932       11.3854649233
  H        44.6679928410       35.1160142404        7.8139564002
  H        24.4279853420        3.0449158785       12.0992473560
  H        25.5521923647        4.8856317670       13.3534858535
  H        23.1571999460        7.7706656280       11.2469268356
  H        22.0448957143        5.9177124154        9.9926025179
  H        23.7831358409        5.7980443820       14.8307965655
  H        44.9529859816       34.3898725830        9.6949916985
  H        44.9005938468       34.2063305316        6.4907250349
  H        40.6642735081       33.2077137481       10.8523685856
  H        23.1504663828        1.9575300762        8.0060046295
  H        25.8214240596       19.6572713324        3.8574384423
  H        23.6497842346       19.7066920453        2.6467216715
  H        22.3329298693       16.2646364684        4.8651229131
  H        24.5168959700       16.2183524895        6.0714278485
  H        23.7197195367       17.6819787781        1.2405991181
  H        35.1505013426       15.4549012545        3.9754274988
  H        37.2667623177       15.4196724029        2.6601624871
  H        38.7084118575       18.7934059483        4.9076235048
  H        36.5848021606       18.8146818081        6.2250176073
  H        37.2308329599       17.3859398899        1.2420507134
  H        20.3491574311       17.9882629529        4.6617442588
  H        35.1970400451       15.4591285192       12.0800217379
  H        37.3303353752       15.3998442596       13.3751118569
  H        38.7518745246       18.8106045510       11.1724252602
  H        36.6169432640       18.8489635310        9.8696573121
  H        37.2484584065       17.3858079992       14.7931575197
  H        35.1522861897       26.6834649795       11.3996882728
  H        28.5053658385       21.1053263501        7.9685931863
  H        25.7643165285       19.6262029937       12.1589832540
  H        23.5850525483       19.6898862650       13.3667365042
  H        22.2992874499       16.1840750013       11.2322053983
  H        24.4897031445       16.1224628151       10.0321037434
  H        23.7029285800       17.6639085063       14.7960451907
  H        28.9732937168       21.7231537821        9.7892971334
  H        29.1239450031       21.7637433357        6.5964780474
  H        32.1326656708       18.5290395871       10.9829295540
  H        27.4161641916       19.1049081502        8.0875935287
  H        14.8502637258       19.6552520061       12.1314531179
  H        17.0150714312       19.7079565321       13.3699560063
  H        18.3112604119       16.2034667367       11.2392889711
  H        16.1421652297       16.1669055375       10.0005751157
  H        16.9249691844       17.7207699849       14.8329875889
  H        46.0998936989       15.4431176337       12.0684438670
  H        43.9774979045       15.3874357760       13.3813226567
  H        42.5594164134       18.8206567986       11.2116116937
  H        44.6816464659       18.8504718582        9.8877576460
  H        44.0328313942       17.3206404840       14.8417236922
  H        20.2980890496       17.9198016826       11.4104285999
  H        46.0420199527       15.3836852508        4.0400341786
  H        43.9104591656       15.3222194366        2.7444544605
  H        42.5209982998       18.7878091091        4.8796974491
  H        44.6588933502       18.8354156743        6.1763800009
  H        44.0146531654       17.2998302600        1.2913077820
  H        46.1986614335       26.6825273718        4.6232408277
  H        52.7407985473       21.0624000702        8.1945874733
  H        14.8676378047       19.6756659230        3.8948770485
  H        17.0645720647       19.7577794941        2.7093395144
  H        18.3389257248       16.2450280362        4.8388058928
  H        16.1433679243       16.1869639196        6.0335649373
  H        16.9411933688       17.7369380703        1.2803005006
  H        52.3207237203       21.6728654579        6.2950561620
  H        52.0118688097       21.7010320059        9.4953945130
  H        49.0669078215       18.6078061128        5.2044370388
  H        13.2472572108       19.0165649801        7.9767913034
  H        29.9141858880       12.5017415872       12.2954291939
  H        28.8410854560       10.5761703893       13.4684724340
  H        25.2594142876       11.1682996658       11.1616277554
  H        26.3520689450       13.0797176715        9.9787492294
  H        27.1071182606       11.7071947398       14.8009253378
  H        30.9923888081       22.7578882658       12.0265939772
  H        31.9929846044       24.6352761695       13.3224465781
  H        35.6692158102       24.1716082786       11.1379845747
  H        34.6527857081       22.2953693473        9.8390606937
  H        33.6527802899       23.5856359990       14.7557055690
  H        25.6970933221        8.5987129024       11.4151534377
  H        30.9076565730       22.6530337460        3.8778764704
  H        31.9145415552       24.5321856071        2.5988745231
  H        35.5225921882       24.1686414563        4.9141423947
  H        34.5049218078       22.2841437936        6.1901062253
  H        33.6111866341       23.5696026684        1.2011233519
  H        40.5975149976       17.0884326153        4.6611768832
  H        32.5077120122       14.1444595457        8.2527316638
  H        29.8438632118       12.5980519526        3.8741710522
  H        28.8171441647       10.6935277252        2.6308170259
  H        25.2002384047       11.1649265924        4.9112249891
  H        26.2493030477       13.0524262288        6.1666480917
  H        27.1008245855       11.7263727202        1.2464030663
  H        33.3053826469       14.1946565748        6.4562455867
  H        33.4104218471       14.3910515040        9.6029596024
  H        32.1220226129       18.4412579351        5.1572341556
  H        30.1812979898       14.1557484258        8.0775705024
  H        16.1184801608        2.9629677339       12.1297991843
  H        14.9531392395        4.8200270012       13.3225920643
  H        17.3658904140        7.6856786059       11.2101672511
  H        18.5147470168        5.8179953012       10.0103346521
  H        16.7536305351        5.7395602812       14.7714559465
  H        44.8286048961       32.1403072982       11.9763556677
  H        45.9379845931       30.3414507160       13.3058743638
  H        43.6816874228       27.3782741096       11.1532046477
  H        42.5987301510       29.1901360316        9.8107311902
  H        44.2304590610       29.4367056642       14.7687052585
  H        14.8503872808        8.5455315797       11.3632932188
  H        44.9002310599       32.2339712394        3.9324033909
  H        46.0251013463       30.4129351582        2.6527296210
  H        43.7621620996       27.4840579603        4.8441766747
  H        42.6443126268       29.3177411087        6.1232248977
  H        44.2684472172       29.4704258223        1.2180450872
  H        35.0239070195       26.6170188445        4.6464023972
  H        36.6051626570       35.1336521275        8.1808719657
  H        16.1439425496        3.0128657862        3.9040295088
  H        14.9743192534        4.8562313016        2.6881640925
  H        17.3960085919        7.7472039478        4.7552185784
  H        18.5430271144        5.8931197791        5.9829910169
  H        16.7648915819        5.7556098523        1.2192787839
  H        36.2801408985       34.4806727803        6.2737838648
  H        36.3830786921       34.2081124686        9.4999198446
  H        40.5776828682       33.2007220197        5.1546408655
  H        17.4710647648        1.9462797122        7.9741093250
  H        28.4771337648       18.7963044301       11.9999460544
  H        28.5700228254       18.6949611339        3.9800871824
  H        31.9344748191       15.8495912245        3.5904672177
  H        31.4193206398       15.6087627779       12.5477064779
  H        28.2403887888       18.3932485105       14.5813048591
  H        29.4660118972       15.3109350174       14.4102069214
  H        32.4165761170       17.2784301046        1.3516461542
  H        18.8540174934        0.8692277806       12.3351222431
  H        40.5280044611       35.2291662610        3.9523345897
  H        42.3226271459       34.4174957392        3.5917308288
  H        22.0878089619        0.6925705974       12.3507448051
  H        11.5970602185       18.7123941882       12.3823366125
  H        52.2647608721       18.4305744519        3.6778233469
  H        49.2549410551       16.4773774527        3.5849622325
  H        10.1499309696       15.7983046586       12.2929942442
  H        50.8495761478       17.6923288071        3.9543353778
  H        10.0457321155       17.3944477326       12.0520271555
  H        20.2149685835        0.0020648962       12.0420009185
  H        39.1837573235       36.1245461567        3.6866836101
 Ni        30.4834377824       17.4426363553        2.7457929977
 Ni        30.9017700734       16.2788992662       -0.0002190511
 Ni        29.5894221544       18.1137319237        0.4944382423
 Ni        30.0584389724       17.3008819348       13.1648517990
  O        10.6500027440       14.3650948485        5.4858230718
  O        12.6132095497       14.6575430489        6.5839017407
  O        49.1480489048       16.8459255434        7.9897504910
  O        50.3502019502       20.9361132222        5.6482227912
  O        48.3485397840       20.5933467859        6.6659484369
  O        11.0515409850       17.0539110948        6.5006847680
  O        50.3211436050       20.8816742913       10.4067786268
  O        48.3468302840       20.5867854118        9.3271567035
  O        49.5437783995       18.2484801691       10.0682653828
  O        12.3589674682       18.6245290161        7.9996406593
  O        48.6932485134       14.1485056485        6.7513202076
  O         8.2099628953       14.2101904618        9.3224148298
  O        10.7354318790       14.5067430914       10.6643592067
  O        12.5718502290       14.5828010224        9.3284788879
  O        22.8447621767        2.0439070023        5.4871495606
  O        21.6050802143        3.5921544800        6.5904813656
  O        42.0576753263       34.1369132211        7.9789804409
  O        37.9815565218       33.1370729328        5.5722846016
  O        39.2170958548       31.5752249719        6.6655467422
  O        20.3083001368        1.0393606457        6.5019697530
  O        38.0246402636       33.1858814010       10.4151946171
  O        39.2183026108       31.5830736240        9.3272666354
  O        40.6522127540       33.7690515612       10.0601592700
  O        18.2559426403        1.3753949022        7.9968347938
  O        44.6222271249       35.1005029434        6.7587144865
  O        24.2053383275        0.0000490533        9.3208241896
  O        22.7532049620        2.0585927890       10.5844568053
  O        21.6246638247        3.5965570371        9.3433671925
  O        27.5484355353       18.6917514320        5.4096422569
  O        26.7318428832       16.9939916800        6.6704337760
  O        30.6737599076       19.4171314141        8.0712001530
  O        33.5936545454       16.2715046337        5.6751793739
  O        34.2768442580       18.1662423317        6.7352928549
  O        29.5710189889       17.0677459702        6.5783461148
  O        33.6169845892       16.3258572615       10.4068516187
  O        34.3060704613       18.2440059540        9.4068282199
  O        31.6473618537       18.3168851812       10.1671295585
  O        30.2928320168       15.1201334233        8.0876511571
  O        28.5559090745       21.0334280326        6.9006174258
  O        28.5136272310       20.9542272793        9.4100891688
  O        27.4987622898       18.6171391377       10.6706177371
  O        26.6912279884       16.9225786845        9.4050524745
  O        13.1488660172       18.6932924203       10.5870956028
  O        13.9194572107       16.9161817231        9.4047862723
  O        50.5961263010       19.3503069487        8.0206714355
  O        47.6851329808       16.3262166023       10.4167331636
  O        46.9521614584       18.1755707113        9.3246710666
  O        11.0697603262       17.0155073061        9.4896714726
  O        47.6767965888       16.3353607260        5.6534300403
  O        46.9278178518       18.2357560615        6.6648393212
  O        49.5686592388       18.3177867948        5.9822743375
  O        10.3188276011       15.1001246676        7.9969943671
  O        52.6707279122       21.0279819891        9.2418344030
  O        12.1468043757       20.8913209875        6.6732337096
  O        13.1069178496       18.6140990668        5.3256621661
  O        13.9571762897       16.9873694201        6.6647322237
  O        29.9886159637       14.4390974459       10.7309679665
  O        28.0865922196       14.6558347500        9.4957973999
  O        32.0793262533       16.8698832303        8.0811587421
  O        30.9620937105       20.9341679791       10.4143439932
  O        32.9438812284       20.5977104669        9.3355891582
  O        29.5675706195       17.0852557641        9.5745295007
  O        30.8769019541       20.8070220156        5.5757278731
  O        32.8663570380       20.5842398711        6.6669478764
  O        31.6739909885       18.2542159764        5.9998461055
  O        28.2923602805       18.6849335057        8.0780042840
  O        32.4917607688       14.2126623136        9.3288127658
  O        32.4065555346       14.2126182945        6.8257820146
  O        29.9052045625       14.4386516356        5.4968111040
  O        28.0067391048       14.6490267938        6.7351950468
  O        17.8890597319        1.9664698040       10.6628716530
  O        18.9561486297        3.5270845389        9.4080153060
  O        39.1686221335       34.1386122052        7.9971366827
  O        43.2802681630       33.0589618344       10.3316623926
  O        42.0345758456       31.5064081238        9.2415677309
  O        20.3175582573        1.0364433198        9.4805718782
  O        43.2761076650       33.1824970578        5.5749045933
  O        42.0052602261       31.5840113033        6.5830299830
  O        40.5789393369       33.7746665888        5.9358626547
  O        22.3672106133        1.3845521650        7.9980253652
  O        36.6726771265       35.0995848515        9.2334462548
  O        16.4454289433        0.0639985665        6.6681950563
  O        17.9364074117        2.0433809224        5.3263597390
  O        18.9190012661        3.5931238236        6.6660392293
  O        29.5607877792       18.8333685163        3.9858316378
  O        29.4359437849       19.0528551722       12.1568716314
  O        31.3858899896       16.4052268863        4.1754735421
  O        31.3661830218       16.4118602506       11.9904086629
  O        31.8017193148       16.5532846319        1.5827256254
  O        30.3318092251       15.7537027729       14.3234762850
  O        29.1956945562       18.5953726381       14.5800748140
  O        39.4568619712       35.2438310371        4.0019502958
  O        19.1416976138        0.0046206166       11.9906315419
  O        41.9697674203       35.1728054077        4.0872947750
  O        21.6914333475       -0.0692654706       11.8957867168
  O        51.3648663547       18.6142272406        4.0053788375
  O        10.7511833570       18.7472270148       11.9050003829
  O        50.0796754178       16.4128147785        4.0917214504
  O         9.5241269588       16.4831111368       11.9912682850
 Zr         9.2964652100       16.0527573837        6.1824670829
 Zr        49.8362196624       16.0065799157        9.7463801507
 Zr        22.0726809192        0.0290098618        6.1894104840
 Zr        42.4604043510       35.1526665328        9.8005757730
 Zr        29.6375575016       19.0875045907        6.3634913518
 Zr        29.6250438661       19.1902096921        9.8095972190
 Zr        11.0377515321       19.0518045791        9.8277482901
 Zr        11.0432434302       19.1547848986        6.2511911275
 Zr        31.3441616591       16.0747528344        9.8982395797
 Zr        31.3928257818       15.9888796223        6.2593387826
 Zr        18.6005789073       -0.0031233289        9.7637972838
 Zr        18.5062019554       -0.0091161808        6.2134698146
 Zr        12.3015928853       16.3235426364        7.9902975835
 Zr        48.6160844675       18.8330759160        8.0103165192
 Zr        20.3148455940        2.4721478855        7.9909747549
 Zr        40.6414862999       32.6853691553        7.9782589719
 Zr        28.3491080143       16.3163227997        8.0843225043
 Zr        32.6822181365       18.8029982087        8.0511237135
  H        29.1429006539       17.4757361056        1.7878446194
  H        29.7716016057       19.5519423916        3.3493805630
  H        29.4451475090       19.3192745216       13.1568464011
