     570
 i =      106, E =     -4745.5927654670
  C        11.8585837114       14.0535193122        5.7415890477
  C        12.4560714203       12.8905076298        5.0233428493
  C        11.7045493647       12.1719308032        4.0812792940
  C        12.2809296678       11.1097378849        3.3889029063
  C        13.6213411702       10.7395609064        3.6169994857
  C        14.3542837510       11.4427339402        4.5909334303
  C        13.7813966936       12.5076832903        5.2824800637
  C        14.2609234027        9.6489477193        2.8435817467
  C        14.2563263289        9.6569238971        1.4218801902
  C        13.7431967309       10.7590416155        0.6679398244
  C        49.1266802779       21.2332538959        5.8797397695
  C        48.5499633400       22.4010849791        5.1526224934
  C        49.3000470122       23.0684610723        4.1716828086
  C        48.7331238989       24.1075818016        3.4384724731
  C        47.4025560756       24.5092190637        3.6670271401
  C        46.6715372062       23.8602593020        4.6804478452
  C        47.2339737427       22.8153680223        5.4098263771
  C        46.7723820960       25.5869489198        2.8697408806
  C        46.7615521072       25.5574182106        1.4479723619
  C        47.2614891871       24.4423368762        0.7044619723
  C        14.8602873980        8.5705925131        0.7086191997
  C        14.8916600654        8.5969563587        3.5202168540
  C        49.1130919455       21.2034495881       10.1454175008
  C        48.5278133850       22.3648381313       10.8724283649
  C        49.2670823751       23.0256478198       11.8652754670
  C        48.6907467793       24.0602016092       12.5967075543
  C        47.3602736139       24.4568813715       12.3585788860
  C        46.6398000637       23.8118453097       11.3351763117
  C        47.2133473272       22.7759286476       10.6034062736
  C        46.7218602602       25.5318503022       13.1496272272
  C        46.7337686366       25.5282671161       14.5713283572
  C        47.2492159741       24.4290546298       15.3276999980
  C        40.6195099360       17.0855288674       15.3099716518
  C        40.6276745496       17.1047581451       12.5002185227
  C        11.8828523679       14.0865065648       10.2854789405
  C        12.4720518866       12.9105051521       10.9895136147
  C        11.7147016977       12.1777235774       11.9160910220
  C        12.2812272094       11.0952346100       12.5845106277
  C        13.6198665694       10.7210659325       12.3522964306
  C        14.3575927522       11.4361206140       11.3909038535
  C        13.7922284686       12.5173232997       10.7182177595
  C        14.2535234136        9.6243849491       13.1227583032
  C        14.2524133937        9.6444925296       14.5446072920
  C        13.7426161257       10.7534814508       15.2916828545
  C        22.5124642368        3.2441247255        5.7536246973
  C        23.2290284235        4.3489572577        5.0550279118
  C        24.2252689555        4.0676199167        4.1084470537
  C        24.8543163977        5.1063618502        3.4269966674
  C        24.5028891091        6.4485939441        3.6722407123
  C        23.5350286574        6.7214495885        4.6560242387
  C        22.9012581710        5.6844941109        5.3357667325
  C        25.1089211055        7.5548609574        2.8963500314
  C        25.0753436246        7.5503085331        1.4749631029
  C        24.3707443502        6.5520408761        0.7297614456
  C        38.2974167229       31.9278986026        5.8522133520
  C        37.5545704692       30.8402599939        5.1513489075
  C        36.5872825524       31.1490754743        4.1822901300
  C        35.9549286212       30.1326561715        3.4714644173
  C        36.2744026675       28.7807106780        3.7057584248
  C        37.2109962447       28.4793104496        4.7127517674
  C        37.8471625865       29.4947269377        5.4233603381
  C        35.6625719789       27.6939772878        2.9060656761
  C        35.7004940545       27.7104578388        1.4842468200
  C        36.4116761579       28.7124751890        0.7513577009
  C        25.6949349461        8.6217871131        0.7545442673
  C        25.7109985215        8.6272274627        3.5665261911
  C        38.3299933375       31.9607302011       10.1603568516
  C        37.6120106922       30.8889090547       10.9096679874
  C        36.6776368576       31.2004429474       11.9096869103
  C        36.0656190270       30.1850471380       12.6426174424
  C        36.3727816980       28.8308389287       12.4005663634
  C        37.2882324167       28.5292418025       11.3732552250
  C        37.9019058555       29.5411617015       10.6411119480
  C        35.7558185139       27.7337761430       13.1827881796
  C        35.7477842746       27.7310328706       14.6054808072
  C        36.4327728830       28.7233990556       15.3747174736
  C        46.1357736319       26.6208996233       15.2814746555
  C        46.0877374280       26.5801136540       12.4735806751
  C        22.4600757829        3.2560874819       10.2581721823
  C        23.1520900218        4.3656744483       10.9822920181
  C        24.1528627711        4.0810594665       11.9249247249
  C        24.7786809673        5.1121069128       12.6216513459
  C        24.4241006059        6.4577097300       12.3983383526
  C        23.4462780697        6.7355556025       11.4243353117
  C        22.8157284263        5.7047419872       10.7282575684
  C        25.0534468207        7.5568337201       13.1726520138
  C        25.0472325612        7.5508319743       14.5956363704
  C        24.3555059782        6.5532785366       15.3528935298
  C        26.6124643481       17.8581220946        5.7852017458
  C        25.3068841547       17.9042658146        5.0608134163
  C        25.0380412121       18.9130256358        4.1218904272
  C        23.8261907751       18.9305626093        3.4340764289
  C        22.8455392359       17.9447614085        3.6656980518
  C        23.1096087409       16.9591030919        4.6354435197
  C        24.3242467391       16.9346030742        5.3192310034
  C        21.5731058948       17.9311789337        2.9000428194
  C        21.5754340915       17.9155363741        1.4776615705
  C        22.7825974903       17.7974601769        0.7189785967
  C        34.4408257585       17.1930998660        5.9199746781
  C        35.7336459142       17.1429840193        5.1767105310
  C        35.9463328905       16.1627955791        4.1945296862
  C        37.1253940283       16.1500156165        3.4552004765
  C        38.1264238735       17.1148973051        3.6794207580
  C        37.9182147389       18.0751340362        4.6877279805
  C        36.7351414671       18.0943196656        5.4232779666
  C        39.3789723167       17.1199291090        2.8894822710
  C        39.3695656119       17.1197137842        1.4675249473
  C        38.1596634665       17.2358501645        0.7133319482
  C        20.3298391943       17.9335715460        0.7673945116
  C        20.3479410906       17.9306572227        3.5810935430
  C        34.4381075601       17.2389937755       10.1899386698
  C        35.7369391490       17.1405672164       10.9152215622
  C        35.9447624341       16.1570578335       11.8938321220
  C        37.1354359720       16.1259480611       12.6156933626
  C        38.1474164345       17.0767956935       12.3785609961
  C        37.9454574922       18.0339359049       11.3666084806
  C        36.7541309172       18.0704989800       10.6484659311
  C        39.3982864694       17.0905827068       13.1695250306
  C        39.3794187148       17.1058096548       14.5909822036
  C        38.1642026649       17.2283747614       15.3363798230
  C        35.1089427567       26.6536169360       15.3056059829
  C        35.1728762614       26.6608848148       12.4958732409
  C        26.5751920900       17.8274945062       10.3253853839
  C        25.2608140235       17.8727411325       11.0336274413
  C        24.9933905420       18.8834669794       11.9695591063
  C        23.7758911174       18.9094300711       12.6444240692
  C        22.7956007974       17.9254567972       12.4056158860
  C        23.0573590937       16.9393961346       11.4372571493
  C        24.2758920593       16.9108256203       10.7615059626
  C        21.5309535375       17.9090612411       13.1774438260
  C        21.5536300444       17.9024562414       14.5989381096
  C        22.7715710849       17.7909056506       15.3424673393
  C        14.0470284151       17.8291631221       10.2885056774
  C        15.3523110704       17.8870056152       11.0132891279
  C        15.6096650002       18.8913819584       11.9594678231
  C        16.8190408205       18.9130571824       12.6518618340
  C        17.8056063351       17.9332023758       12.4202835210
  C        17.5531182438       16.9530944850       11.4418192209
  C        16.3431501729       16.9268992845       10.7510187853
  C        19.0745428115       17.9166239623       13.1900899418
  C        19.0720431082       17.9142182077       14.6126633111
  C        17.8642091997       17.8153670065       15.3726923604
  C        46.8016955192       17.2161183160       10.1568931615
  C        45.5077171974       17.1456590064       10.8965166365
  C        45.3010814093       16.1604914684       11.8748384656
  C        44.1167109155       16.1326251525       12.6066584069
  C        43.1074923326       17.0898540130       12.3835987017
  C        43.3105946618       18.0535959570       11.3771045536
  C        44.4958406770       18.0852856477       10.6458366364
  C        41.8544917065       17.0944829640       13.1744948341
  C        41.8641410699       17.0964749330       14.5968449257
  C        43.0752593940       17.1936238500       15.3519113228
  C        20.3180991562       17.9260704828       15.3223765935
  C        20.2996592422       17.8963533692       12.5093357376
  C        46.7853772554       17.2324347512        5.8865045582
  C        45.4845415971       17.1287335975        5.1662004409
  C        45.2666439401       16.1287161931        4.2061659064
  C        44.0798192617       16.1011949997        3.4778602427
  C        43.0809080338       17.0710415743        3.6915008520
  C        43.2901504160       18.0423083503        4.6885387912
  C        44.4777527379       18.0757755575        5.4125563285
  C        41.8332172581       17.0894066146        2.8963916789
  C        41.8535479060       17.0923659629        1.4750227126
  C        43.0703679088       17.1886409408        0.7289528095
  C        46.1535614740       26.6373188875        0.7262325017
  C        46.1623040062       26.6559963691        3.5358876607
  C        14.0443679856       17.8307898254        5.7084290630
  C        15.3645734799       17.9032192955        5.0163165212
  C        15.6391705761       18.9202961446        4.0900596566
  C        16.8679105415       18.9567437169        3.4348267816
  C        17.8489482137       17.9751029842        3.6803374045
  C        17.5808996941       16.9862067583        4.6441386962
  C        16.3542668798       16.9494130041        5.3029822648
  C        19.1165128963       17.9509348376        2.9124048465
  C        19.0940335262       17.9307881470        1.4909410749
  C        17.8749350848       17.8226977221        0.7489211075
  C        28.8094447667       14.0929646855       10.3950705003
  C        28.1944132448       12.9214547160       11.0833669474
  C        28.9133178869       12.1810510727       12.0335614769
  C        28.3107510581       11.1075354564       12.6845274115
  C        26.9751868638       10.7497838839       12.4092793944
  C        26.2784840477       11.4701290386       11.4224549389
  C        26.8784950221       12.5441223087       10.7702167870
  C        26.3040078121        9.6707012504       13.1694888108
  C        26.2915038194        9.6977099530       14.5905180951
  C        26.7921094511       10.8119906536       15.3360946884
  C        32.1804503009       21.2395782843       10.1486497058
  C        32.7734123692       22.4054512524       10.8682951676
  C        32.0197463997       23.0911800875       11.8335881942
  C        32.5872978446       24.1320440891       12.5620609782
  C        33.9251219669       24.5164261527       12.3473876190
  C        34.6617599536       23.8497281081       11.3500382625
  C        34.0963993275       22.8032747912       10.6232587394
  C        34.5490817956       25.5932194224       13.1511261820
  C        34.5252215138       25.5681206369       14.5731754205
  C        34.0105189819       24.4535499707       15.3081082334
  C        25.6846553558        8.6186221224       15.3097050816
  C        25.6681053252        8.6193779373       12.4961812850
  C        32.0792556502       21.1986640089        5.8746076826
  C        32.6445987286       22.3641489766        5.1337165469
  C        31.9104071239       23.0084228924        4.1259595678
  C        32.4805553412       24.0506993992        3.3969287711
  C        33.7986743499       24.4778262921        3.6542564166
  C        34.5132657579       23.8468886234        4.6911385936
  C        33.9485672823       22.8019023290        5.4165282052
  C        34.4383231224       25.5633721299        2.8736343488
  C        34.4672790954       25.5534183611        1.4511058433
  C        33.9817567255       24.4472031567        0.6848429507
  C        40.6139187646       17.0881436023        0.7550026276
  C        40.6043234493       17.1217402044        3.5652687389
  C        28.7494172456       14.0703283351        5.8166049477
  C        28.1411558761       12.9222093661        5.0801429072
  C        28.8710824759       12.2371944597        4.0969007587
  C        28.2903313561       11.1797560765        3.4005708201
  C        26.9634108982       10.7816246919        3.6610503505
  C        26.2512778510       11.4545805034        4.6715175263
  C        26.8304981160       12.5118348220        5.3702723754
  C        26.3191686946        9.6921128044        2.8889072043
  C        26.3004971674        9.7087142192        1.4670678062
  C        26.7942380333       10.8187704126        0.7121286233
  C        18.1354168885        3.1807897998       10.3171209358
  C        17.4060605262        4.2780851071       11.0157781464
  C        16.3903500925        3.9996915226       11.9432752147
  C        15.7425613248        5.0396514341       12.6067712953
  C        16.0944308050        6.3833746072       12.3670888486
  C        17.0838067981        6.6529316028       11.4033311315
  C        17.7329500619        5.6156034764       10.7382941676
  C        15.4700667241        7.4910850206       13.1301142181
  C        15.4854590363        7.4905172449       14.5518333342
  C        16.1870476866        6.4969297833       15.3050159900
  C        42.9457482275       31.8594496247       10.0728415964
  C        43.6460701981       30.7717762597       10.8168201005
  C        44.5917473435       31.0931066152       11.8027528301
  C        45.1974605761       30.0875680938       12.5504142309
  C        44.8708884873       28.7345136675       12.3357030718
  C        43.9448504444       28.4201588029       11.3226916501
  C        43.3360318572       29.4252982784       10.5746370840
  C        45.4885933140       27.6552575178       13.1388734080
  C        45.4929486284       27.6809645519       14.5605674197
  C        44.8058588293       28.6889986455       15.3072009544
  C        14.8564960668        8.5630314027       15.2641788016
  C        14.8746643819        8.5627711230       12.4515000105
  C        42.9463665356       31.9615104631        5.8089597969
  C        43.6915858358       30.8853819373        5.0954832322
  C        44.6564427107       31.1912906679        4.1234338546
  C        45.2779584971       30.1717130224        3.4056924014
  C        44.9539434927       28.8214030506        3.6430846880
  C        44.0200703561       28.5237231048        4.6534918914
  C        43.3918116345       29.5404906883        5.3656874754
  C        45.5630853986       27.7240382304        2.8578355089
  C        45.5335130808       27.7174221931        1.4365330729
  C        44.8271681864       28.7076439958        0.6835927997
  C        35.0820909501       26.6447499611        0.7511515800
  C        35.0482320004       26.6206685933        3.5614539178
  C        18.1485739426        3.2468576689        5.7066608711
  C        17.4299494498        4.3437711038        4.9973389548
  C        16.4146755152        4.0525037003        4.0738535816
  C        15.7663639574        5.0831305601        3.3984284660
  C        16.1210752117        6.4283535014        3.6210989166
  C        17.1125273878        6.7117401258        4.5782685597
  C        17.7601950440        5.6828255431        5.2580547040
  C        15.4905717591        7.5240643596        2.8486486746
  C        15.4965308655        7.5075031196        1.4275133849
  C        16.1932820620        6.5057838151        0.6808305945
  H        10.6725350970       12.4663123171        3.9039834445
  H        11.6947191401       10.5515046511        2.6621113093
  H        15.3911483961       11.1677703433        4.7730444573
  H        14.3506760760       13.0705489577        6.0183286179
  H        13.3761603039       11.6311681218        1.2012229156
  H        50.3227600139       22.7484427435        3.9869578930
  H        49.3196095768       24.6228733728        2.6809153096
  H        45.6419906937       24.1609172374        4.8635137163
  H        46.6628436053       22.2900909272        6.1718090784
  H        47.6298754346       23.5758738214        1.2461131846
  H        14.8718836408        8.5881153253        4.6085166868
  H        50.2871605234       22.7028822281       12.0601325723
  H        49.2691373914       24.5757297096       13.3601592442
  H        45.6103179663       24.1089081664       11.1462500323
  H        46.6523796012       22.2536752908        9.8320100030
  H        47.6078494721       23.5518711295       14.7968135156
  H        40.6298677885       17.0715498180       11.4123491702
  H        48.6869967367       14.0949653494        7.7999729260
  H        10.6813680950       12.4671005897       12.0938059706
  H        11.6895193780       10.5251408915       13.2975221286
  H        15.3928386653       11.1578120079       11.2045578304
  H        14.3643936671       13.0863083466        9.9892541784
  H        13.3757429852       11.6220758363       14.7530424733
  H        47.9300200493       14.2185216929        9.7107524435
  H        47.7799253781       14.3735333423        6.4952234155
  H        49.0823254057       18.5518563001       10.8669890959
  H        10.4157397866       14.1343999777        7.9987662852
  H        24.4840623630        3.0286157598        3.9169428586
  H        25.6267205306        4.8879217450        2.6927536033
  H        23.2564260514        7.7548605235        4.8515933162
  H        22.1316435855        5.8857417422        6.0769509644
  H        23.8113180879        5.7945221081        1.2709158752
  H        36.3558809007       32.1936078326        3.9876003172
  H        35.2058652071       30.3773636252        2.7215473755
  H        37.4659294490       27.4386526168        4.9023835532
  H        38.5955974160       29.2679063013        6.1790437873
  H        36.9724741641       29.4627762241        1.3010040775
  H        25.7518320971        8.6069858486        4.6540825412
  H        36.4501057610       32.2451501372       12.1093306919
  H        35.3343966688       30.4341291317       13.4084755416
  H        37.5395859131       27.4885709215       11.1793037412
  H        38.6289963700       29.3111743593        9.8660493876
  H        37.0106961222       29.4817150081       14.8542418255
  H        46.1088954141       26.5874038698       11.3855406268
  H        44.6681590671       35.1160968345        7.8139486495
  H        24.4312327300        3.0431517078       12.0931235141
  H        25.5585195676        4.8840273157       13.3451188808
  H        23.1606107538        7.7696872230       11.2427417474
  H        22.0450313339        5.9166752647        9.9907533302
  H        23.7838942785        5.7972613325       14.8223905986
  H        44.9534779654       34.3902009176        9.6951233024
  H        44.9014348097       34.2066293421        6.4906773992
  H        40.6658115992       33.2087286821       10.8530094220
  H        23.1504111119        1.9575958926        8.0055394690
  H        25.7879667650       19.6814346390        3.9479656193
  H        23.6227705404       19.7181617913        2.7116167059
  H        22.3640121980       16.1890390026        4.8227789241
  H        24.5396374273       16.1593445932        6.0508899134
  H        23.7231211982       17.6802946708        1.2496836759
  H        35.1715773272       15.4205117951        4.0191804238
  H        37.2874258835       15.3836266132        2.7004154237
  H        38.6828210622       18.8286936588        4.8650145535
  H        36.5579937733       18.8508973193        6.1842188051
  H        37.2216721453       17.3656865994        1.2457805074
  H        20.3532275038       17.9664241287        4.6690997277
  H        35.1565955064       15.4328555095       12.0862324131
  H        37.2942722009       15.3607892663       13.3723785109
  H        38.7194142356       18.7750947543       11.1783558239
  H        36.5783832170       18.8280033903        9.8885983399
  H        37.2294005952       17.3531059746       14.7971734334
  H        35.1580861470       26.6836634270       11.4078361298
  H        28.5020298090       21.0847633137        7.8880787570
  H        25.7514568271       19.6431891136       12.1466544233
  H        23.5677723657       19.6978751174       13.3645722137
  H        22.3087522823       16.1729582911       11.2470854849
  H        24.4934033391       16.1382029954       10.0278859130
  H        23.7036790875       17.6686011755       14.7990173337
  H        29.0110848319       21.7227667819        9.7385470264
  H        29.1785840241       21.7246731978        6.5589945606
  H        32.0763977536       18.5719379945       10.9857472397
  H        27.4088404589       19.0780322921        8.0815534849
  H        14.8513178450       19.6506443944       12.1372176175
  H        17.0143802423       19.6982469633       13.3791000769
  H        18.3040185310       16.1883864717       11.2538020691
  H        16.1368930323       16.1567734532       10.0115088002
  H        16.9222396229       17.7004152258       14.8443298773
  H        46.0861786658       15.4301209993       12.0558438528
  H        43.9591341624       15.3612913843       13.3573693646
  H        42.5401500091       18.8009759203       11.1990014682
  H        44.6674574236       18.8445114295        9.8863067460
  H        44.0155591303       17.3045140473       14.8195088547
  H        20.2948468860       17.9243172663       11.4211372180
  H        46.0426607633       15.3866091126        4.0329558131
  H        43.9135306389       15.3239933850        2.7350992079
  H        42.5245471263       18.7961273062        4.8599672185
  H        44.6594203006       18.8440552832        6.1601030635
  H        44.0070271955       17.2947659657        1.2685836391
  H        46.1989198572       26.6824321751        4.6233444774
  H        52.7410194871       21.0625966006        8.1946680606
  H        14.8799736206       19.6759718778        3.9007090401
  H        17.0806464393       19.7485429879        2.7197695414
  H        18.3298777600       16.2217965314        4.8406141506
  H        16.1314524847       16.1736163634        6.0314545828
  H        16.9409987307       17.7134490740        1.2920041045
  H        52.3220416836       21.6731457855        6.2944688863
  H        52.0129889852       21.7018825958        9.4956858423
  H        49.0671354948       18.6079321071        5.2042871057
  H        13.2472099296       19.0165506697        7.9771701585
  H        29.9428495790       12.4600830721       12.2462975359
  H        28.8697637812       10.5321559340       13.4192998089
  H        25.2468593152       11.2035664951       11.2019169286
  H        26.3380375699       13.1211067381       10.0238748415
  H        27.1494451055       11.6830184030       14.7953115022
  H        30.9918408563       22.7834581228       12.0083922667
  H        31.9971978241       24.6614148099       13.3069157167
  H        35.6974168536       24.1358133143       11.1782425322
  H        34.6720379480       22.2637947133        9.8746515856
  H        33.6655380800       23.5806533456       14.7609977136
  H        25.6983584181        8.5994892582       11.4081809955
  H        30.8979588895       22.6702637435        3.9166021440
  H        31.9036619589       24.5496562664        2.6213126337
  H        35.5336183216       24.1633701351        4.8973199577
  H        34.5083860606       22.2941992157        6.1983142896
  H        33.6139007897       23.5693459590        1.2084440264
  H        40.6005728530       17.0940587973        4.6532568042
  H        32.5036292173       14.1496936351        8.2492980512
  H        29.8938870804       12.5481147633        3.8964645101
  H        28.8644801215       10.6440326398        2.6477200476
  H        25.2246907592       11.1603292214        4.8799986065
  H        26.2768648362       13.0468242618        6.1381706602
  H        27.1514827785       11.6952717350        1.2448813922
  H        33.3090580355       14.2338540774        6.4692240239
  H        33.4070343661       14.4051516306        9.5961715209
  H        32.1159942231       18.4606708435        5.1543340463
  H        30.2118741451       14.1858532179        8.0807961719
  H        16.1183354012        2.9631679728       12.1296566027
  H        14.9530933968        4.8202199902       13.3224018781
  H        17.3661691158        7.6858230404       11.2102048546
  H        18.5149480103        5.8182258475       10.0103970191
  H        16.7535371829        5.7395413816       14.7715054543
  H        44.8281204003       32.1401827269       11.9768371393
  H        45.9374187440       30.3413131325       13.3062693688
  H        43.6819123668       27.3781176385       11.1527726476
  H        42.5992591842       29.1899153493        9.8101324860
  H        44.2303664500       29.4366716493       14.7689131837
  H        14.8507464647        8.5458579824       11.3632811518
  H        44.9001614814       32.2339617176        3.9321613843
  H        46.0250121212       30.4129288700        2.6525980924
  H        43.7627103486       27.4840276019        4.8447179871
  H        42.6449812666       29.3176422062        6.1237962257
  H        44.2685529890       29.4704422669        1.2181946920
  H        35.0004458779       26.6322501886        4.6487543654
  H        36.6051380289       35.1339490472        8.1806602882
  H        16.1435700577        3.0129186369        3.9041864831
  H        14.9740001277        4.8562582657        2.6883950130
  H        17.3960946443        7.7471991533        4.7550859224
  H        18.5431372622        5.8932328404        5.9827586333
  H        16.7646547055        5.7555164321        1.2192929021
  H        36.2788522304       34.4819945944        6.2734459150
  H        36.3809920523       34.2089583094        9.4996312271
  H        40.5785267870       33.2012021394        5.1542804851
  H        17.4708886281        1.9467446183        7.9740483930
  H        29.2524840243       19.4549950932       12.5951525099
  H        28.7192067241       18.6693232004        3.8191405289
  H        31.9484546300       15.9283782504        3.5464773682
  H        31.2593918053       15.6174542833       12.5253795651
  H        27.9954865171       17.8658553072       14.4504699257
  H        29.2225220342       15.4226921672       14.3808458343
  H        32.3050448108       17.5668690138        1.1018222566
  H        32.4428438910       18.0780246858       13.9976734758
  H        18.8529141207        0.8688357353       12.3351877105
  H        40.5279710445       35.2290900484        3.9522257419
  H        42.3230865030       34.4181842173        3.5910617911
  H        22.0876767507        0.6920928417       12.3512689583
  H        11.5970117515       18.7128347797       12.3823770147
  H        52.2651606281       18.4307705189        3.6778021159
  H        49.2546005677       16.4773464509        3.5848672043
  H        10.1500664099       15.7981690569       12.2928136775
  H        50.8499820803       17.6925867586        3.9542575153
  H        10.0459148530       17.3944976617       12.0520350336
  H        20.2140193182        0.0020552421       12.0420777729
  H        39.1834773797       36.1242420018        3.6863439610
 Ni        30.6048206853       17.6738748334        2.7470507286
 Ni        30.7795014150       16.3986436813       -0.0813839861
 Ni        29.5028926918       18.2127043068        0.3289066597
 Ni        29.9724103489       17.3546522995       13.1603524027
  O        10.6498548305       14.3651332851        5.4858231556
  O        12.6131231365       14.6575290589        6.5838959623
  O        49.1477689869       16.8460055112        7.9898216831
  O        50.3502316158       20.9358612598        5.6481962682
  O        48.3485415805       20.5932609702        6.6659896894
  O        11.0514440694       17.0539520048        6.5006538716
  O        50.3210198201       20.8816677023       10.4067784393
  O        48.3467570509       20.5867389071        9.3270983828
  O        49.5435183495       18.2484341303       10.0683330841
  O        12.3588714163       18.6245717326        7.9997944165
  O        48.6931907691       14.1486016068        6.7512815292
  O         8.2098208667       14.2104372929        9.3225861894
  O        10.7353320827       14.5067624390       10.6643132348
  O        12.5717925209       14.5828389435        9.3284906589
  O        22.8445924621        2.0430055274        5.4872059829
  O        21.6056288885        3.5923115064        6.5895490980
  O        42.0578686933       34.1370667236        7.9789467744
  O        37.9813033366       33.1369136264        5.5725886812
  O        39.2171511437       31.5750753544        6.6656710724
  O        20.3082990054        1.0393030324        6.5020037094
  O        38.0244529968       33.1852314022       10.4155062998
  O        39.2182393546       31.5829403765        9.3275725709
  O        40.6521627242       33.7691331072       10.0601744057
  O        18.2556812728        1.3757228526        7.9967749987
  O        44.6222344171       35.1005072685        6.7587481429
  O        24.2053286549        0.0000351628        9.3208283584
  O        22.7530128301        2.0581962260       10.5840467666
  O        21.6243795044        3.5961314612        9.3425710088
  O        27.4912280772       18.7517928564        5.4958388355
  O        26.7603720136       16.9362882166        6.6552312043
  O        30.6608846704       19.4014674601        8.0636278219
  O        33.5861357646       16.2737724823        5.6680017370
  O        34.2728558664       18.1654416809        6.7366605744
  O        29.5728377070       17.0527898307        6.5831045993
  O        33.5514819828       16.3393024985       10.4162310851
  O        34.2987318757       18.2377509959        9.4064264991
  O        31.6507454769       18.3160407331       10.1506354388
  O        30.3171765998       15.1513156282        8.0870198525
  O        28.5500401421       21.0332696769        6.8369091880
  O        28.5153075875       20.9542878602        9.4079465717
  O        27.4616352058       18.6792163156       10.6600255435
  O        26.6948654926       16.9295274515        9.4131184167
  O        13.1491628781       18.6929237138       10.5875913944
  O        13.9196897413       16.9162092780        9.4052423130
  O        50.5957660870       19.3501703121        8.0207088365
  O        47.6824779108       16.3271422496       10.4172655063
  O        46.9503252477       18.1756140284        9.3255271313
  O        11.0694927126       17.0156749101        9.4897305123
  O        47.6759168378       16.3358318435        5.6529524794
  O        46.9263932768       18.2358137829        6.6639263338
  O        49.5684293303       18.3177371244        5.9823652007
  O        10.3185389806       15.1002668742        7.9971134483
  O        52.6707330786       21.0278819678        9.2418427205
  O        12.1468229214       20.8911693696        6.6732286156
  O        13.1079409315       18.6136874262        5.3256501832
  O        13.9569535063       16.9868220282        6.6655761565
  O        29.9943806784       14.4448988291       10.7334635908
  O        28.0900715034       14.6532886231        9.4968590707
  O        32.0775435825       16.8620039314        8.0753999732
  O        30.9637010342       20.9500506551       10.4108017505
  O        32.9447600641       20.6023205582        9.3389166296
  O        29.5631210908       17.0780429528        9.5775879860
  O        30.8522210751       20.8809896615        5.6545093694
  O        32.8702860860       20.5860840116        6.6653517863
  O        31.6782959255       18.2568179063        5.9979152848
  O        28.2932943852       18.6771055648        8.0724647511
  O        32.4896754845       14.2140735969        9.3281811787
  O        32.4038569237       14.2182542184        6.8230829970
  O        29.9219977180       14.4435303931        5.4883141250
  O        28.0404603380       14.5896553900        6.7514196375
  O        17.8891865246        1.9665363660       10.6628124622
  O        18.9562118850        3.5270918583        9.4079688605
  O        39.1685880912       34.1385510803        7.9971280674
  O        43.2801780175       33.0589005530       10.3316638963
  O        42.0343788705       31.5064587376        9.2415866703
  O        20.3175101934        1.0365640813        9.4803008158
  O        43.2760863202       33.1825387822        5.5749158810
  O        42.0052308546       31.5840817296        6.5830088555
  O        40.5789103483       33.7747377293        5.9357957958
  O        22.3672060700        1.3845143264        7.9979306764
  O        36.6727625634       35.0996718791        9.2333165449
  O        16.4455525112        0.0641647394        6.6682728019
  O        17.9364720265        2.0433467064        5.3263745307
  O        18.9190365824        3.5930983082        6.6659497835
  O        29.6594846020       18.6803835731        4.0759844089
  O        29.8639497663       18.9035726813       12.0724148967
  O        31.3462710303       16.4770567828        4.0803759044
  O        31.2592643693       16.4821289789       12.0693919588
  O        31.7250425481       16.8457997352        1.4287166094
  O        30.1071031838       15.8275554423       14.3129709848
  O        32.6177228377       18.6827622919       14.7449349430
  O        28.8916113354       18.2469188297       14.5078566536
  O        39.4567400676       35.2436942307        4.0019826753
  O        19.1408603057        0.0043328881       11.9905917109
  O        41.9695924118       35.1728320639        4.0871789809
  O        21.6911984893       -0.0693389258       11.8957190845
  O        51.3652838118       18.6142704703        4.0054924721
  O        10.7511864776       18.7471661486       11.9049053960
  O        50.0792455308       16.4128556800        4.0917843823
  O         9.5243173745       16.4830895669       11.9912312609
 Zr         9.2963064030       16.0528375270        6.1823325418
 Zr        49.8357435100       16.0068989824        9.7465831962
 Zr        22.0730916684        0.0293922264        6.1890684295
 Zr        42.4606940118       35.1530989833        9.8007947644
 Zr        29.6060133248       19.0734508497        6.2713127079
 Zr        29.5825285984       19.1812005562        9.8654441397
 Zr        11.0375002074       19.0521456621        9.8277410727
 Zr        11.0431912083       19.1549636144        6.2514294579
 Zr        31.3373912296       16.1072512749        9.8686649509
 Zr        31.3804229983       16.0169129943        6.2624764446
 Zr        18.6008583895       -0.0021454805        9.7634121947
 Zr        18.5064014484       -0.0083407009        6.2134947890
 Zr        12.3013209043       16.3234987192        7.9904433393
 Zr        48.6153702428       18.8329817071        8.0105389798
 Zr        20.3150499987        2.4729071297        7.9905082763
 Zr        40.6426622283       32.6862351123        7.9780897583
 Zr        28.3445278643       16.3346301177        8.0830938561
 Zr        32.6240752083       18.8393313322        8.0521160066
  H        31.7214678973       19.0017813969       14.9677685152
  H        30.2203630075       18.7961639373        1.6273145996
