     573
 i =      189, E =     -4762.8047424073
  C        11.8585411735       14.0535152633        5.7416805855
  C        12.4559191562       12.8903712825        5.0235371745
  C        11.7043207878       12.1719648234        4.0814001378
  C        12.2805360278       11.1097111356        3.3889830850
  C        13.6208837591       10.7393013571        3.6171027877
  C        14.3538702442       11.4422405397        4.5911886115
  C        13.7811376518       12.5072565577        5.2827830766
  C        14.2603614562        9.6486649046        2.8436086095
  C        14.2556569153        9.6565892257        1.4218864718
  C        13.7424894472       10.7586905865        0.6679443720
  C        49.1265076977       21.2332836947        5.8797178821
  C        48.5497162022       22.4011106709        5.1526473515
  C        49.2997880583       23.0685055281        4.1717144864
  C        48.7328450925       24.1076080998        3.4385053621
  C        47.4022499583       24.5091403466        3.6670359492
  C        46.6712345201       23.8601629681        4.6804363966
  C        47.2336850842       22.8152675993        5.4098001039
  C        46.7720776624       25.5868528251        2.8697401894
  C        46.7611858963       25.5572783161        1.4479782165
  C        47.2610524604       24.4421454589        0.7044992912
  C        14.8595824813        8.5702491881        0.7085901681
  C        14.8911610655        8.5966800032        3.5202151475
  C        49.1129282809       21.2033944384       10.1453244846
  C        48.5274974311       22.3646322988       10.8725020960
  C        49.2667930925       23.0255555314       11.8652441226
  C        48.6904163824       24.0600734401       12.5966971891
  C        47.3598893667       24.4566066068       12.3586461237
  C        46.6393704865       23.8114297580       11.3353702570
  C        47.2129613546       22.7755400528       10.6035890845
  C        46.7214863860       25.5316111246       13.1496570611
  C        46.7333686228       25.5280568686       14.5713559200
  C        47.2487644470       24.4288264208       15.3277382936
  C        40.6176500162       17.0883116813       15.3147451701
  C        40.6330293868       17.1016074898       12.5047719258
  C        11.8826111724       14.0864986290       10.2853700064
  C        12.4716695870       12.9103556492       10.9893443185
  C        11.7142933803       12.1778462645       11.9161204791
  C        12.2806579364       11.0952907267       12.5845730266
  C        13.6191636088       10.7207563702       12.3522015158
  C        14.3568572477       11.4354422656       11.3905023770
  C        13.7916566391       12.5167088887       10.7177728259
  C        14.2527429874        9.6240698403       13.1227184637
  C        14.2516322644        9.6441463111       14.5445745074
  C        13.7418507160       10.7531136134       15.2916841514
  C        22.5128476004        3.2439136176        5.7540839372
  C        23.2308698370        4.3478321476        5.0561345038
  C        24.2284600278        4.0644982523        4.1115980992
  C        24.8591142913        5.1018230361        3.4298803101
  C        24.5079753168        6.4446022170        3.6727038072
  C        23.5388398458        6.7195584429        4.6545997269
  C        22.9034587199        5.6838737865        5.3348164715
  C        25.1181610591        7.5475752626        2.8959476099
  C        25.0920085265        7.5376780555        1.4746534382
  C        24.3810318883        6.5424232046        0.7315992329
  C        38.2981650611       31.9279922434        5.8519257214
  C        37.5566467081       30.8398832332        5.1504013838
  C        36.5907998934       31.1479833108        4.1797845222
  C        35.9598362623       30.1309346519        3.4687192228
  C        36.2793697463       28.7792753428        3.7045652341
  C        37.2146420797       28.4785861373        4.7129214337
  C        37.8495020344       29.4946741931        5.4236207774
  C        35.6673908192       27.6926131207        2.9053250219
  C        35.7028305514       27.7100582251        1.4835528145
  C        36.4165219283       28.7102213335        0.7504529866
  C        25.7238567802        8.6009980405        0.7525054988
  C        25.7174442825        8.6223647492        3.5643684990
  C        38.3302002421       31.9609714807       10.1602861138
  C        37.6122886587       30.8891467495       10.9098331360
  C        36.6795814032       31.2010626047       11.9112088710
  C        36.0673311937       30.1858141651       12.6440870373
  C        36.3724555947       28.8314962193       12.4002862270
  C        37.2864301669       28.5295010858       11.3718326685
  C        37.9005224315       29.5413531151       10.6399150873
  C        35.7543655020       27.7350582510       13.1823748287
  C        35.7472712913       27.7317396092       14.6049501099
  C        36.4364745690       28.7214432573       15.3738709532
  C        46.1354506937       26.6207484829       15.2814766293
  C        46.0874493040       26.5799006899       12.4735797679
  C        22.4593758803        3.2540906948       10.2576484063
  C        23.1517026701        4.3610045638       10.9830160333
  C        24.1520609257        4.0717080227       11.9244811299
  C        24.7797504000        5.0998257785       12.6229095159
  C        24.4268840812        6.4459582174       12.4014673203
  C        23.4490511640        6.7285563208       11.4291135856
  C        22.8164856995        5.7005868426       10.7313387514
  C        25.0623247537        7.5411158821       13.1740912187
  C        25.0641402149        7.5333645662       14.5964847759
  C        24.3659067083        6.5414406440       15.3549919361
  C        26.6010132732       17.8404316386        5.7845425179
  C        25.2988366464       17.9310796774        5.0574804026
  C        25.0576496358       18.9437509927        4.1160108209
  C        23.8447122441       18.9920926867        3.4301048291
  C        22.8397443064       18.0313028860        3.6635606213
  C        23.0771037363       17.0435902653        4.6380062576
  C        24.2892959285       16.9908989083        5.3220456178
  C        21.5692118878       18.0321353965        2.8964231870
  C        21.5715923360       18.0147205300        1.4742404784
  C        22.7788891913       17.8923201814        0.7161068662
  C        34.4221367978       17.2199266255        5.9130972814
  C        35.7116702522       17.1536775623        5.1664922159
  C        35.8923269820       16.2050632306        4.1479349685
  C        37.0763979800       16.1780219322        3.4154323385
  C        38.1098141737       17.0994100543        3.6777273476
  C        37.9287698071       18.0282602643        4.7209034956
  C        36.7443293255       18.0596890051        5.4527735508
  C        39.3650085132       17.1012173910        2.8916042199
  C        39.3612881683       17.1183944992        1.4692247032
  C        38.1560769483       17.2535085000        0.7105917757
  C        20.3254968654       18.0264320457        0.7644913855
  C        20.3439406847       18.0243544935        3.5775692587
  C        34.4393072425       17.2354626334       10.1916759107
  C        35.7411404771       17.1328723219       10.9121118043
  C        35.9390896831       16.1652676568       11.9084269016
  C        37.1300774108       16.1357912858       12.6303087461
  C        38.1518436936       17.0722298864       12.3765283242
  C        37.9594093056       18.0115299215       11.3457945954
  C        36.7681478054       18.0466379189       10.6273594072
  C        39.4012484144       17.0907994995       13.1700919274
  C        39.3800130565       17.1133314381       14.5916555168
  C        38.1645287110       17.2486044670       15.3338883306
  C        35.1049339746       26.6564825465       15.3051418201
  C        35.1691921763       26.6632771057       12.4957761369
  C        26.5730313588       17.8278109372       10.3350641503
  C        25.2594199929       17.8849899359       11.0412771238
  C        24.9882790436       18.9204313292       11.9491582102
  C        23.7688995737       18.9606948283       12.6199333211
  C        22.7926828773       17.9665500781       12.4054839484
  C        23.0591027594       16.9556510755       11.4653285901
  C        24.2788179387       16.9134933299       10.7922364122
  C        21.5269587451       17.9643842447       13.1752831902
  C        21.5491770312       17.9772757860       14.5962365679
  C        22.7674126291       17.8731299214       15.3399727842
  C        14.0465523356       17.8317749941       10.2868687941
  C        15.3518699362       17.8986657991       11.0098505740
  C        15.6077264726       18.9186975201       11.9395631582
  C        16.8165162868       18.9528475209       12.6318179277
  C        17.8031244456       17.9695385416       12.4168665258
  C        17.5520140257       16.9726617414       11.4551875765
  C        16.3427288492       16.9346928032       10.7635175080
  C        19.0714264151       17.9680068124       13.1871908248
  C        19.0681271315       17.9851173771       14.6096482320
  C        17.8602375747       17.8922220814       15.3702777493
  C        46.8022943053       17.2169346791       10.1586027845
  C        45.5104268690       17.1481026883       10.9021221702
  C        45.3072789104       16.1658445751       11.8842337728
  C        44.1241680191       16.1377723970       12.6182183124
  C        43.1123031669       17.0917804586       12.3933984325
  C        43.3127210106       18.0535726125       11.3843535916
  C        44.4966907994       18.0856010569       10.6510399482
  C        41.8580583093       17.0949610067       13.1825659864
  C        41.8642789344       17.0978187006       14.6051335275
  C        43.0730628601       17.1927519390       15.3641515142
  C        20.3137889506       18.0077164690       15.3195991813
  C        20.2963906442       17.9403604992       12.5068154920
  C        46.7824401834       17.2305987454        5.8876636013
  C        45.4784776748       17.1209056762        5.1718357886
  C        45.2608860060       16.1189781515        4.2133822091
  C        44.0720317354       16.0857825469        3.4880086672
  C        43.0689511040       17.0512650075        3.7027492274
  C        43.2772020542       18.0231679950        4.6996497587
  C        44.4672234719       18.0627964489        5.4202558542
  C        41.8212592800       17.0685823776        2.9053758897
  C        41.8454653794       17.0827651101        1.4837449932
  C        43.0641663247       17.1825871054        0.7412377817
  C        46.1532519551       26.6372027102        0.7262305722
  C        46.1621117632       26.6559547818        3.5358724042
  C        14.0445963855       17.8360244302        5.7102139397
  C        15.3649738013       17.9253721791        5.0201962690
  C        15.6276954327       18.9562114713        4.1054192210
  C        16.8544150520       19.0135958241        3.4482508709
  C        17.8456544299       18.0393061684        3.6801347357
  C        17.5894762131       17.0361530706        4.6326318430
  C        16.3646157911       16.9785945346        5.2940404433
  C        19.1123883023       18.0360462054        2.9099286415
  C        19.0895776582       18.0194594480        1.4882633947
  C        17.8707503663       17.9072856408        0.7465066387
  C        28.8187663875       14.0479352217       10.3546681477
  C        28.2034691723       12.8797288478       11.0460461001
  C        28.9435183649       12.1114003753       11.9573232704
  C        28.3427943524       11.0461812543       12.6230199366
  C        26.9902187859       10.7229076639       12.3965687812
  C        26.2700736834       11.4701577470       11.4474141935
  C        26.8671378646       12.5387743248       10.7835332819
  C        26.3253809874        9.6457076391       13.1652177563
  C        26.3312738974        9.6669132407       14.5860896059
  C        26.8604054266       10.7697727025       15.3287541965
  C        32.1802210400       21.2427063312       10.1460176808
  C        32.7721683056       22.4105289129       10.8648678926
  C        32.0134515526       23.1012686609       11.8227411953
  C        32.5791643693       24.1414753465       12.5536776604
  C        33.9196388612       24.5207111977       12.3471486697
  C        34.6615206033       23.8490564704       11.3572551854
  C        34.0981130387       22.8026993512       10.6287983306
  C        34.5424333412       25.5976158103       13.1513510015
  C        34.5159114070       25.5735490706       14.5731678746
  C        33.9916051845       24.4633080522       15.3082446093
  C        25.7144137074        8.5949787113       15.3078757342
  C        25.6754711594        8.6021605237       12.4948174534
  C        32.0781677513       21.2020318518        5.8771495462
  C        32.6450134218       22.3666851640        5.1340012159
  C        31.8970248694       23.0436874754        4.1584026699
  C        32.4684184171       24.0823148246        3.4252032529
  C        33.8013693918       24.4779100077        3.6524640317
  C        34.5313319337       23.8170813114        4.6590000843
  C        33.9656391102       22.7723542684        5.3843451200
  C        34.4396331926       25.5650008468        2.8724670458
  C        34.4608784669       25.5582573255        1.4503868966
  C        33.9629155555       24.4569025444        0.6850242169
  C        40.6077474611       17.0856775309        0.7600901503
  C        40.5899135633       17.0922392731        3.5702114071
  C        28.7399224918       14.0631022070        5.8219412412
  C        28.1377982152       12.9125318669        5.0862319639
  C        28.8894890530       12.2000606579        4.1389265810
  C        28.3146493225       11.1434053453        3.4366334987
  C        26.9738024868       10.7714466695        3.6589708379
  C        26.2394167261       11.4698763966        4.6358866525
  C        26.8116676332       12.5281103136        5.3387983387
  C        26.3378235354        9.6784981603        2.8847376499
  C        26.3381499254        9.6846080980        1.4627818709
  C        26.8601816724       10.7799656379        0.7050587289
  C        18.1353563135        3.1808694820       10.3171024609
  C        17.4058382236        4.2780762973       11.0157001711
  C        16.3901039697        3.9995577093       11.9431420560
  C        15.7421577505        5.0394208137       12.6066259491
  C        16.0938855565        6.3831908983       12.3670145562
  C        17.0832785656        6.6528780221       11.4033112596
  C        17.7325864295        5.6156466567       10.7382761600
  C        15.4693778530        7.4908077382       13.1300597496
  C        15.4847409849        7.4902019726       14.5517783234
  C        16.1863878408        6.4966482430       15.3049413956
  C        42.9457714013       31.8593950257       10.0728124715
  C        43.6460542728       30.7717036515       10.8167610679
  C        44.5917062388       31.0930029134       11.8027300898
  C        45.1973715633       30.0874380597       12.5503924344
  C        44.8707813016       28.7343898030       12.3356522571
  C        43.9448190570       28.4200703447       11.3225549962
  C        43.3360544136       29.4252325325       10.5744947130
  C        45.4883849016       27.6551066060       13.1388498356
  C        45.4927313257       27.6808580071       14.5605428935
  C        44.8057457505       28.6889754602       15.3071644478
  C        14.8557348672        8.5626838330       15.2641387564
  C        14.8739326885        8.5624756573       12.4514754809
  C        42.9463939757       31.9615114342        5.8089656849
  C        43.6915907939       30.8853831855        5.0955057013
  C        44.6563458159       31.1912911920        4.1233548402
  C        45.2778324170       30.1717068259        3.4056019965
  C        44.9538964143       28.8213968154        3.6430894605
  C        44.0202163561       28.5237214077        4.6536820512
  C        43.3919926948       29.5404884355        5.3658961421
  C        45.5629251521       27.7240075689        2.8578194262
  C        45.5333290784       27.7173851405        1.4365203035
  C        44.8270642080       28.7076451282        0.6835566822
  C        35.0795009748       26.6472533734        0.7504551972
  C        35.0545240572       26.6184122290        3.5610032251
  C        18.1484966146        3.2468476278        5.7066087027
  C        17.4297541222        4.3436642339        4.9973127834
  C        16.4145031694        4.0523027489        4.0738267983
  C        15.7660800468        5.0828654290        3.3984184223
  C        16.1206639117        6.4281330464        3.6210615404
  C        17.1120843521        6.7116029945        4.5782513815
  C        17.7598719337        5.6827571267        5.2580293474
  C        15.4900550302        7.5237913989        2.8486141271
  C        15.4959025216        7.5071853640        1.4274681284
  C        16.1926698835        6.5054950332        0.6807579668
  H        10.6723705394       12.4665353520        3.9040536821
  H        11.6942377461       10.5516232597        2.6621460002
  H        15.3906661896       11.1670508841        4.7733829524
  H        14.3504732598       13.0699525291        6.0187253412
  H        13.3754657899       11.6308278102        1.2012287625
  H        50.3225248800       22.7485338554        3.9870488487
  H        49.3193042311       24.6229223167        2.6809449035
  H        45.6416618465       24.1607514404        4.8634557682
  H        46.6625574360       22.2899181978        6.1717358823
  H        47.6293927206       23.5756825285        1.2461810215
  H        14.8714729259        8.5878577767        4.6085242586
  H        50.2869146147       22.7028834708       12.0600255077
  H        49.2688010250       24.5756844262       13.3600997186
  H        45.6098262550       24.1083467080       11.1465523326
  H        46.6519726885       22.2531404639        9.8323051399
  H        47.6073485625       23.5516162577       14.7968578591
  H        40.6388350564       17.0631745408       11.4170972314
  H        48.6868847185       14.0949598022        7.7999638220
  H        10.6810593388       12.4674890158       12.0939865632
  H        11.6888924669       10.5254328749       13.2977190847
  H        15.3919656321       11.1567913411       11.2039174845
  H        14.3637936262       13.0853595963        9.9885174616
  H        13.3749476107       11.6217113861       14.7530805817
  H        47.9300107538       14.2181432745        9.7107212494
  H        47.7798445573       14.3732140045        6.4950147079
  H        49.0822716635       18.5518519192       10.8669584070
  H        10.4155684464       14.1344068990        7.9986594402
  H        24.4868347424        3.0250698421        3.9219343656
  H        25.6326050186        4.8821225647        2.6971710470
  H        23.2605828077        7.7533919127        4.8484502852
  H        22.1328661039        5.8865078431        6.0746114743
  H        23.8154429758        5.7906540416        1.2742966282
  H        36.3594299919       32.1923713642        3.9842538812
  H        35.2117510713       30.3748503937        2.7175796080
  H        37.4695711806       27.4381345013        4.9036832854
  H        38.5969981736       29.2687457370        6.1804902716
  H        36.9806075256       29.4581679836        1.2999310542
  H        25.7470936149        8.6106102725        4.6524105398
  H        36.4535916052       32.2459067860       12.1118765710
  H        35.3374464885       30.4350775671       13.4111611892
  H        37.5363497881       27.4886990650       11.1767122268
  H        38.6265700350       29.3112664446        9.8638990370
  H        37.0166304897       29.4777739161       14.8529556403
  H        46.1086440317       26.5871613274       11.3855383835
  H        44.6682587138       35.1161276985        7.8139856416
  H        24.4283289519        3.0328123974       12.0896682080
  H        25.5598703538        4.8697702071       13.3454115234
  H        23.1658798790        7.7638004819       11.2500773555
  H        22.0457220255        5.9146438512        9.9945501391
  H        23.7879337396        5.7895615388       14.8255020855
  H        44.9538071534       34.3902023370        9.6949495661
  H        44.9018237836       34.2067610525        6.4906492777
  H        40.6660196373       33.2088826453       10.8530936524
  H        23.1504378230        1.9574373863        8.0055053367
  H        25.8303201078       19.6884205557        3.9375263336
  H        23.6608887963       19.7833919441        2.7064284875
  H        22.3120278131       16.2933487451        4.8270238735
  H        24.4838444816       16.2148104159        6.0583665457
  H        23.7190221451       17.7763481322        1.2475146114
  H        35.0871349276       15.5046484593        3.9372714457
  H        37.2152433736       15.4331845690        2.6349309673
  H        38.7166121306       18.7494540604        4.9283457277
  H        36.5900967083       18.7916987841        6.2421739893
  H        37.2182324144       17.3929868426        1.2403404205
  H        20.3492726662       18.0563286946        4.6656849287
  H        35.1412262340       15.4561013305       12.1173807192
  H        37.2805517590       15.3829894728       13.4009753234
  H        38.7403787016       18.7415543884       11.1434511699
  H        36.5998019931       18.7920172180        9.8539178697
  H        37.2332153681       17.3834124687       14.7912750403
  H        35.1552513105       26.6851996246       11.4077129733
  H        28.5082352126       21.0903975609        7.9835877671
  H        25.7457886505       19.6857577683       12.1054594101
  H        23.5542607763       19.7683990124       13.3166953125
  H        22.3134044793       16.1817265009       11.2952923604
  H        24.5002710421       16.1227363106       10.0793692926
  H        23.6981976628       17.7404329224       14.7964539981
  H        28.9954131397       21.7202643717        9.7730209122
  H        29.1477748336       21.7431601531        6.6118787312
  H        32.1310527449       18.5841933196       10.9603962687
  H        27.3612984850       19.0985143036        8.0983258996
  H        14.8484439007       19.6799358080       12.1040897590
  H        17.0114996346       19.7501497435       13.3458539597
  H        18.3034689677       16.2052435858       11.2809764405
  H        16.1371665034       16.1526177923       10.0363935400
  H        16.9183178711       17.7736572355       14.8426334659
  H        46.0938734419       15.4372549677       12.0659096092
  H        43.9692848508       15.3678937287       13.3709759017
  H        42.5404966596       18.7988665028       11.2052455483
  H        44.6655186996       18.8430571342        9.8891113564
  H        44.0150505034       17.3048390282       14.8349408255
  H        20.2918328226       17.9514901747       11.4183345551
  H        46.0392987537       15.3798773483        4.0379844941
  H        43.9080965074       15.3075387152        2.7457752472
  H        42.5089834563       18.7738575202        4.8732212841
  H        44.6468501441       18.8327137241        6.1666863265
  H        43.9994451478       17.2855130565        1.2838598805
  H        46.1987821464       26.6824121207        4.6233242693
  H        52.7407989213       21.0625551142        8.1945396011
  H        14.8601612220       19.7059463535        3.9266756139
  H        17.0573425298       19.8161106756        2.7423110851
  H        18.3467857875       16.2772833766        4.8183904206
  H        16.1516143772       16.1920124406        6.0139924091
  H        16.9367736662       17.8000050810        1.2898958582
  H        52.3213563616       21.6731639311        6.2950425539
  H        52.0127475064       21.7017596565        9.4955769890
  H        49.0662139899       18.6072548365        5.2042715616
  H        13.2469447247       19.0175134490        7.9773930067
  H        29.9877424115       12.3623905829       12.1296158821
  H        28.9166385438       10.4509204931       13.3300364169
  H        25.2246588683       11.2286729211       11.2667393596
  H        26.3096103148       13.1389049748       10.0685621081
  H        27.2400269126       11.6304860719       14.7861407390
  H        30.9815043439       22.8000331474       11.9867709312
  H        31.9854327759       24.6754458161       13.2923713689
  H        35.6993048465       24.1316358653       11.1925545849
  H        34.6771192083       22.2587672829        9.8859852794
  H        33.6373403082       23.5941962988       14.7609969765
  H        25.6936212942        8.5869167547       11.4065296045
  H        30.8665587747       22.7429779781        3.9827891529
  H        31.8814199453       24.6050029268        2.6730994564
  H        35.5630997237       24.1105444132        4.8411208196
  H        34.5364238878       22.2402054603        6.1415351376
  H        33.5858572046       23.5830419594        1.2092292163
  H        40.5834847296       17.0521283528        4.6578289282
  H        32.5288861794       14.1447909501        8.2508519376
  H        29.9261974026       12.4844905964        3.9728063695
  H        28.9044675749       10.5872111143        2.7111858575
  H        25.2020978940       11.1939084839        4.8139835112
  H        26.2417193532       13.0834550104        6.0800039717
  H        27.2381664876       11.6492305538        1.2352848713
  H        33.2915606312       14.1874713140        6.4244875106
  H        33.4087062006       14.3967465363        9.6140713604
  H        32.1447229863       18.5319880859        5.2089070801
  H        30.2499254641       14.1801676574        8.0850251432
  H        16.1182041138        2.9629994750       12.1294844363
  H        14.9526734928        4.8198839272       13.3221994198
  H        17.3655443977        7.6858005524       11.2102252511
  H        18.5146104093        5.8184042665       10.0104407611
  H        16.7529208971        5.7393042982       14.7714238490
  H        44.8281035544       32.1400689988       11.9768489852
  H        45.9373264917       30.3411558268       13.3062623598
  H        43.6819430000       27.3780255871       11.1525550180
  H        42.5993580211       29.1898820546        9.8099083056
  H        44.2303684096       29.4367271570       14.7688626522
  H        14.8500457868        8.5455829871       11.3632622277
  H        44.9000074591       32.2339635479        3.9320106464
  H        46.0248440583       30.4129173930        2.6524644205
  H        43.7630449811       27.4840116520        4.8450799659
  H        42.6453322219       29.3176544666        6.1241742758
  H        44.2685710056       29.4705467399        1.2181340119
  H        35.0117197381       26.6264855209        4.6485518838
  H        36.6052459371       35.1339999094        8.1806811780
  H        16.1434866682        3.0126957167        3.9041696166
  H        14.9737099252        4.8559257058        2.6884101513
  H        17.3955276591        7.7470967434        4.7550969908
  H        18.5427907410        5.8932717608        5.9827287621
  H        16.7641262849        5.7552702311        1.2191999863
  H        36.2789417544       34.4820093646        6.2734100074
  H        36.3812935523       34.2088629942        9.4995125815
  H        40.5789274458       33.2015516757        5.1540690838
  H        17.4708894578        1.9471173807        7.9740042684
  H        28.9473547805       18.8513765859       12.4413865526
  H        28.9241218256       18.3867861007        3.8829666201
  H        30.4692623937       15.6965330763        3.7951158332
  H        30.6664341767       15.4709377736       12.3652955553
  H        26.7980703182       18.5626483058       14.4101435696
  H        29.7771149090       16.2636365766       14.6226211341
  H        30.6734925390       20.1782706124        2.8648502101
  H        32.9412237490       17.7930203694        1.6292901029
  H        30.9531174303       20.0189722817       13.5306993297
  H        18.8538772084        0.8691489298       12.3352292495
  H        40.5280955572       35.2289884277        3.9521624636
  H        42.3234876013       34.4184484856        3.5907482797
  H        22.0876327236        0.6917687126       12.3515181408
  H        11.5969413628       18.7128160895       12.3822478640
  H        52.2645372755       18.4308856672        3.6775569281
  H        49.2556460403       16.4764867818        3.5841259156
  H        10.1498583015       15.7982286333       12.2930041208
  H        50.8495680454       17.6923986148        3.9542049184
  H        10.0458355919       17.3945598099       12.0520324094
  H        20.2153061904        0.0021962785       12.0419195110
  H        39.1836733561       36.1243336320        3.6864160205
 Ni        31.1547350381       17.9373601026        3.1641425720
 Ni        31.2431505716       16.8669102021        0.3308598578
 Ni        30.4770606245       18.8683754155       -0.3335368089
 Ni        30.8175833823       17.7442732543       13.1576078651
  O        10.6498885689       14.3651813847        5.4858585413
  O        12.6131782516       14.6576195226        6.5839125184
  O        49.1477032410       16.8460331097        7.9896999879
  O        50.3501169096       20.9361165589        5.6482368155
  O        48.3484699943       20.5932415307        6.6659837062
  O        11.0511388145       17.0539021694        6.5007960806
  O        50.3208524382       20.8816799506       10.4068096912
  O        48.3466592620       20.5866506820        9.3270433385
  O        49.5434254902       18.2484080598       10.0682815887
  O        12.3590846483       18.6244645864        7.9996556743
  O        48.6931792923       14.1486767665        6.7512575278
  O         8.2098140427       14.2104253610        9.3225405085
  O        10.7351299280       14.5067910470       10.6643087489
  O        12.5717478701       14.5829232254        9.3285251919
  O        22.8444774276        2.0426590556        5.4873997837
  O        21.6056873812        3.5923876750        6.5895329633
  O        42.0579482612       34.1370680388        7.9788557464
  O        37.9813484273       33.1367730028        5.5725527579
  O        39.2173053587       31.5751199626        6.6658738779
  O        20.3083558723        1.0393916875        6.5019673856
  O        38.0245451914       33.1853229533       10.4155517314
  O        39.2182720635       31.5829335564        9.3275625152
  O        40.6521691346       33.7690976433       10.0601343041
  O        18.2556965813        1.3761212045        7.9967484144
  O        44.6222434606       35.1005040240        6.7587548677
  O        24.2054142651       -0.0000556085        9.3207609948
  O        22.7524910256        2.0562295643       10.5833163276
  O        21.6241275219        3.5955189759        9.3421921253
  O        27.5255506371       18.6827993143        5.4849181945
  O        26.6978232153       16.9243986314        6.6661206111
  O        30.6639566974       19.4071236146        8.0775062894
  O        33.5434094173       16.3308228693        5.6570773308
  O        34.2778546970       18.1815829836        6.7441592474
  O        29.5725722789       17.0653487433        6.6506034469
  O        33.5505943991       16.3407173990       10.4219619430
  O        34.3019238372       18.2382095236        9.4104108526
  O        31.6557667970       18.3109305334       10.1564332147
  O        30.3226698057       15.1488084414        8.0848836031
  O        28.5500929432       21.0331249060        6.9067434053
  O        28.5124131708       20.9585426699        9.4099090869
  O        27.4625112520       18.6785223097       10.6641477671
  O        26.6896068397       16.9300238663        9.4230519168
  O        13.1474210668       18.6938165662       10.5867200402
  O        13.9199852628       16.9165925030        9.4058414566
  O        50.5954607938       19.3500807067        8.0204473129
  O        47.6827344081       16.3271194847       10.4173535914
  O        46.9501285595       18.1754788748        9.3258158918
  O        11.0694564205       17.0155446995        9.4895447194
  O        47.6747155733       16.3358821245        5.6527617191
  O        46.9247269078       18.2356475178        6.6630273424
  O        49.5681229026       18.3176682892        5.9821893675
  O        10.3185191564       15.1002946398        7.9970619351
  O        52.6706981188       21.0279265001        9.2418117968
  O        12.1467546109       20.8912774589        6.6732862333
  O        13.1053274794       18.6146946928        5.3260618012
  O        13.9577624427       16.9878829801        6.6637464625
  O        30.0249048900       14.3620849814       10.6529569867
  O        28.0867619685       14.6499061422        9.4957448366
  O        32.1395671146       16.8572909025        8.0822307736
  O        30.9663471635       20.9521005810       10.4109038531
  O        32.9470818676       20.6030776706        9.3402956980
  O        29.5614988686       17.0764601739        9.5684650732
  O        30.8505885490       20.8847577541        5.6551065937
  O        32.8693270299       20.5876733483        6.6646512246
  O        31.6795934652       18.2571380940        6.0218231324
  O        28.2354449973       18.6773220624        8.0803037031
  O        32.4962578540       14.2100601432        9.3266113883
  O        32.4063910746       14.2138079634        6.8242327224
  O        29.9139715069       14.4393844554        5.4884662411
  O        28.0365522627       14.5884656133        6.7521251868
  O        17.8891753210        1.9665702804       10.6628089798
  O        18.9561734961        3.5271369918        9.4079850154
  O        39.1685893511       34.1386376349        7.9971516140
  O        43.2801841310       33.0588280677       10.3316867491
  O        42.0343348398       31.5064370679        9.2415830285
  O        20.3175148848        1.0365394747        9.4801804494
  O        43.2760754230       33.1825072231        5.5748789931
  O        42.0052215478       31.5841237410        6.5830239866
  O        40.5789048816       33.7747908129        5.9357893611
  O        22.3671884371        1.3844074331        7.9978521964
  O        36.6727772816       35.0996925286        9.2333278090
  O        16.4455925011        0.0641827726        6.6682641555
  O        17.9364104463        2.0432687341        5.3263970568
  O        18.9189987817        3.5931632720        6.6658544620
  O        29.7741734848       18.7699708070        4.1699798297
  O        29.8216258182       18.9630059333       12.0020983685
  O        31.1011693921       16.3406047838        4.1608360108
  O        31.0526810939       16.2822401078       11.9903575061
  O        32.2388370386       17.1494348531        1.8453719121
  O        30.7517989444       16.3463530737       14.6453468249
  O        31.3782840329       19.3330354311       14.0852696208
  O        31.3571657640       19.7075730638        2.3386907336
  O        27.7182408170       18.3890260261       14.1550785119
  O        39.4568125462       35.2437157404        4.0019736111
  O        19.1417300421        0.0046798871       11.9904944546
  O        41.9695619676       35.1726946036        4.0871535256
  O        21.6911299342       -0.0696326495       11.8959502491
  O        51.3647169090       18.6143070557        4.0053715383
  O        10.7510584702       18.7472058304       11.9049062432
  O        50.0799667316       16.4128183479        4.0916996670
  O         9.5242027291       16.4831326172       11.9912066775
 Zr         9.2959318866       16.0528513231        6.1822552303
 Zr        49.8355646112       16.0068350056        9.7466083877
 Zr        22.0732924218        0.0295340787        6.1889628609
 Zr        42.4608134007       35.1529462351        9.8007143453
 Zr        29.5912715103       19.0918816527        6.3349083236
 Zr        29.5771468076       19.1721124722        9.8663253292
 Zr        11.0369556383       19.0520882959        9.8275270343
 Zr        11.0427263904       19.1549503876        6.2511793864
 Zr        31.3376383188       16.0862629795        9.8610001536
 Zr        31.3878921479       16.0153922210        6.3053085544
 Zr        18.6011080376       -0.0017048277        9.7635519979
 Zr        18.5065784879       -0.0080708012        6.2136042695
 Zr        12.3013094688       16.3235433122        7.9901801214
 Zr        48.6147503875       18.8327335536        8.0101820605
 Zr        20.3150004793        2.4730931685        7.9903005572
 Zr        40.6429421921       32.6865481936        7.9780985990
 Zr        28.3251641353       16.3363642263        8.0960616881
 Zr        32.6348460627       18.8359762088        8.0611615888
  H        28.2541906482       18.4789539084       14.9776765848
  H        30.9300417955       19.5445286507        1.4044139322
  H        29.6279454107       18.4154227382        0.7729435704
