     573
 i =      116, E =     -4762.7767930093
  C        11.8588593191       14.0533883510        5.7415383595
  C        12.4563538639       12.8905744137        5.0232712244
  C        11.7047458451       12.1716760317        4.0814976313
  C        12.2812017176       11.1095271258        3.3891626738
  C        13.6217633610       10.7396851059        3.6170066729
  C        14.3548271419       11.4432310832        4.5905830584
  C        13.7818761203       12.5081601726        5.2820923818
  C        14.2613050862        9.6490372285        2.8436180257
  C        14.2565827694        9.6570033614        1.4219271112
  C        13.7434814773       10.7591607714        0.6680250284
  C        49.1270052281       21.2332572783        5.8796518940
  C        48.5504031834       22.4012657065        5.1526751175
  C        49.3002716181       23.0682310740        4.1712983999
  C        48.7333583282       24.1073920100        3.4381141107
  C        47.4029993655       24.5094868855        3.6670923002
  C        46.6722921903       23.8610419525        4.6810815843
  C        47.2347070183       22.8161366155        5.4104343407
  C        46.7726651984       25.5871009289        2.8698047685
  C        46.7616591074       25.5574487879        1.4480429125
  C        47.2616122718       24.4423902829        0.7045045862
  C        14.8605154753        8.5706728484        0.7086554280
  C        14.8921054273        8.5971011374        3.5202744018
  C        49.1133956693       21.2036416553       10.1453837414
  C        48.5281498108       22.3650894442       10.8723775488
  C        49.2672247947       23.0255004749       11.8656270220
  C        48.6908901932       24.0600651512       12.5970608631
  C        47.3606039436       24.4571578069       12.3585745181
  C        46.6404230568       23.8126228780       11.3346319422
  C        47.2139568995       22.7767231072       10.6028471135
  C        46.7220775769       25.5320228738       13.1496550891
  C        46.7337495285       25.5282583970       14.5713605407
  C        47.2493373313       24.4291134702       15.3277420591
  C        40.6336345820       17.1423299447       15.3225831253
  C        40.6516545811       17.1736840126       12.5140761913
  C        11.8831266100       14.0864384298       10.2855936918
  C        12.4724813236       12.9108136821       10.9898268281
  C        11.7150877261       12.1776186043       11.9160676431
  C        12.2817758791       11.0952033566       12.5844254654
  C        13.6205976977       10.7214742669       12.3524774426
  C        14.3584358546       11.4370315027       11.3915508180
  C        13.7929132440       12.5181636396       10.7189006419
  C        14.2542391728        9.6247431484       13.1228567415
  C        14.2528267174        9.6447043051       14.5446891889
  C        13.7429933008       10.7536671846       15.2917725457
  C        22.5137358274        3.2445817135        5.7538399504
  C        23.2325832704        4.3487677473        5.0565806775
  C        24.2283815722        4.0664438997        4.1096469124
  C        24.8595522829        5.1044157232        3.4289010972
  C        24.5111384802        6.4473584308        3.6748984016
  C        23.5440215684        6.7210741586        4.6592973167
  C        22.9080228433        5.6849249997        5.3383901977
  C        25.1178042954        7.5532902364        2.8985383767
  C        25.0804698309        7.5498812652        1.4771366301
  C        24.3743026406        6.5520532839        0.7328571587
  C        38.2985041030       31.9282494320        5.8520032194
  C        37.5582098011       30.8395528808        5.1504329365
  C        36.5952734976       31.1461126697        4.1765064145
  C        35.9666988912       30.1277745823        3.4651373678
  C        36.2856731359       28.7767049355        3.7047018497
  C        37.2176388735       28.4776511631        4.7164918797
  C        37.8504300364       29.4949438171        5.4270736504
  C        35.6768671883       27.6881515202        2.9058347579
  C        35.7194808343       27.7015388944        1.4843187716
  C        36.4358041960       28.7000762976        0.7516217499
  C        25.6973411195        8.6224523302        0.7558908078
  C        25.7228001879        8.6245848993        3.5677815396
  C        38.3307473742       31.9608127444       10.1604476955
  C        37.6149385258       30.8877609547       10.9102011254
  C        36.6853355304       31.1971654401       11.9151543484
  C        36.0768453033       30.1800206355       12.6486375783
  C        36.3826027879       28.8264442512       12.4015603929
  C        37.2928469736       28.5269876396       11.3691007846
  C        37.9034565284       29.5406686216       10.6369542837
  C        35.7682960770       27.7279253905       13.1836726702
  C        35.7661602647       27.7219848470       14.6062557780
  C        36.4568676132       28.7107377053       15.3750087991
  C        46.1356638527       26.6208269061       15.2815391897
  C        46.0879891749       26.5803414507       12.4736402733
  C        22.4601761457        3.2563953626       10.2586639898
  C        23.1517167728        4.3656644191       10.9832877144
  C        24.1506684316        4.0808566119       11.9279103778
  C        24.7761271524        5.1117432554       12.6251956994
  C        24.4233180421        6.4576676909       12.4005905842
  C        23.4473922308        6.7355955539       11.4245926636
  C        22.8170891749        5.7049992986       10.7279997120
  C        25.0525640378        7.5570480909       13.1746762214
  C        25.0468849777        7.5514950470       14.5977248193
  C        24.3566537645        6.5537091866       15.3559749002
  C        26.6106867038       17.8563516430        5.7848138789
  C        25.3065999845       17.8959541734        5.0572231022
  C        25.0362693269       18.9001591299        4.1137890124
  C        23.8251242784       18.9126685016        3.4247337225
  C        22.8453812078       17.9272613447        3.6616128761
  C        23.1105886459       16.9462821807        4.6356423045
  C        24.3253798219       16.9259255887        5.3192787386
  C        21.5723638555       17.9107028907        2.8973861836
  C        21.5742060112       17.8894940332        1.4751878448
  C        22.7806641791       17.7652771824        0.7163431076
  C        34.4469958201       17.2016713800        5.9230604967
  C        35.7405941416       17.1489935072        5.1821687538
  C        35.9688592808       16.1530259600        4.2193359315
  C        37.1461153508       16.1481220379        3.4768552869
  C        38.1298043611       17.1343652223        3.6833184262
  C        37.9081640428       18.1080627703        4.6751235786
  C        36.7260316730       18.1209590739        5.4114308214
  C        39.3832468222       17.1452999519        2.8961115102
  C        39.3768658501       17.1542377866        1.4751860962
  C        38.1680593884       17.2673164388        0.7186475991
  C        20.3284129023       17.9087193989        0.7656498789
  C        20.3477091356       17.9148793649        3.5792355704
  C        34.4731717289       17.2458018646       10.1842047229
  C        35.7748721167       17.1740431372       10.9092225189
  C        35.9928221037       16.1854327714       11.8801670765
  C        37.1792810083       16.1678354042       12.6077367278
  C        38.1743240547       17.1387498080       12.3837446996
  C        37.9622601923       18.1035055841       11.3818178110
  C        36.7741433765       18.1255148620       10.6565689378
  C        39.4209721224       17.1578792765       13.1790193593
  C        39.3965353657       17.1637474824       14.5997966940
  C        38.1775970005       17.2717143831       15.3416370202
  C        35.1255446157       26.6457028043       15.3063768310
  C        35.1800607268       26.6580723256       12.4967033745
  C        26.5709654998       17.8262327869       10.3253546359
  C        25.2571344965       17.8674793767       11.0328293152
  C        24.9952075873       18.8658549638       11.9831069368
  C        23.7771347477       18.8882901932       12.6565187435
  C        22.7928388709       17.9119966808       12.4035506566
  C        23.0498506595       16.9380044706       11.4218030967
  C        24.2684679896       16.9135349613       10.7464864222
  C        21.5289121742       17.8903782880       13.1755856069
  C        21.5516613371       17.8758541826       14.5970577848
  C        22.7694401286       17.7576480836       15.3398529319
  C        14.0467736801       17.8285427319       10.2887290087
  C        15.3513724899       17.8840211633       11.0132875884
  C        15.6090777441       18.8843483206       11.9636203810
  C        16.8183941031       18.9020916316       12.6560218767
  C        17.8040967753       17.9224330806       12.4200199442
  C        17.5514738190       16.9469889267       11.4369988027
  C        16.3415801810       16.9244367716       10.7464807219
  C        19.0727743245       17.9009833782       13.1892941284
  C        19.0702505047       17.8930006838       14.6116417584
  C        17.8625787832       17.7931952289       15.3717818004
  C        46.8064259997       17.2203468893       10.1596382120
  C        45.5178980762       17.1641266021       10.9079472615
  C        45.3109368153       16.1907000638       11.8972847493
  C        44.1304352312       16.1795760916       12.6353538102
  C        43.1280632815       17.1418920382       12.4050118436
  C        43.3324790688       18.0953308046       11.3896231572
  C        44.5137296401       18.1104752449       10.6529164027
  C        41.8753410672       17.1579274665       13.1931767958
  C        41.8806119755       17.1576488245       14.6146901249
  C        43.0894936452       17.2534184959       15.3733494490
  C        20.3164108867       17.9008272350       15.3208084115
  C        20.2974115029       17.8828883027       12.5079224062
  C        46.7872137942       17.2318763993        5.8901210446
  C        45.4839122358       17.1300170310        5.1754159996
  C        45.2628635123       16.1348897213        4.2117324577
  C        44.0749714697       16.1149589903        3.4854761659
  C        43.0805496358       17.0871551502        3.7070480631
  C        43.2914629516       18.0514632375        4.7097749288
  C        44.4804763639       18.0778337619        5.4308098936
  C        41.8353612707       17.1158146548        2.9104788169
  C        41.8604179896       17.1335575426        1.4900116976
  C        43.0801419371       17.2392053496        0.7499101331
  C        46.1533937720       26.6371973152        0.7263040183
  C        46.1626949027       26.6562296692        3.5359369308
  C        14.0446831767       17.8301035290        5.7080016199
  C        15.3645349336       17.8999899837        5.0158593919
  C        15.6395535774       18.9123816711        4.0845689877
  C        16.8681821576       18.9448488456        3.4289756974
  C        17.8488924440       17.9639587209        3.6791517782
  C        17.5806516956       16.9804365682        4.6483918917
  C        16.3541330197       16.9473878851        5.3073950954
  C        19.1160126600       17.9346398291        2.9109437304
  C        19.0929061628       17.9096974457        1.4895906972
  C        17.8735626261       17.8008613949        0.7480313251
  C        28.8092100729       14.0909899860       10.3928281482
  C        28.1926302270       12.9206460329       11.0817416983
  C        28.9057027918       12.1934898196       12.0462971483
  C        28.3037302923       11.1196188109       12.6968999439
  C        26.9739785399       10.7500193111       12.4090800648
  C        26.2831833066       11.4584442070       11.4094849813
  C        26.8831567251       12.5318826840       10.7561905128
  C        26.3020838654        9.6719994628       13.1698944657
  C        26.2878995995        9.7002898605       14.5910840110
  C        26.7846411576       10.8166407683       15.3360763976
  C        32.1788352185       21.2416640117       10.1487386242
  C        32.7735245612       22.4080685620       10.8678187420
  C        32.0230400841       23.0885814546       11.8391201297
  C        32.5923869542       24.1286219584       12.5678315938
  C        33.9285388564       24.5160896547       12.3478574374
  C        34.6615479712       23.8542218278       11.3445779973
  C        34.0943022525       22.8093108439       10.6170756580
  C        34.5562166727       25.5903150736       13.1518872150
  C        34.5366144454       25.5632214338       14.5739219442
  C        34.0179118460       24.4509225956       15.3094971194
  C        25.6839703051        8.6200445136       15.3109902102
  C        25.6673494644        8.6191422859       12.4976102167
  C        32.0778337788       21.2052197924        5.8827058661
  C        32.6451204067       22.3721876353        5.1441671353
  C        31.9129956596       23.0148967556        4.1339113591
  C        32.4861787682       24.0531181906        3.4011742176
  C        33.8052161548       24.4779638116        3.6576870416
  C        34.5173103545       23.8494031596        4.6978648015
  C        33.9496089176       22.8082554395        5.4266221721
  C        34.4484022825       25.5600696113        2.8750060184
  C        34.4795829939       25.5484935446        1.4525334789
  C        33.9891614371       24.4445559572        0.6862164132
  C        40.6232733941       17.1335304179        0.7665624922
  C        40.6053736139       17.1433322291        3.5764917668
  C        28.7493427542       14.0741817923        5.8159788814
  C        28.1459838557       12.9246657816        5.0789522784
  C        28.8715191633       12.2529395897        4.0832896795
  C        28.2929817779       11.1934767118        3.3879483693
  C        26.9728551327       10.7807015113        3.6608831448
  C        26.2659473930       11.4410994045        4.6835872250
  C        26.8426626097       12.4996775508        5.3818516756
  C        26.3282376286        9.6909339480        2.8894550225
  C        26.3034638674        9.7097288359        1.4675697161
  C        26.7900156903       10.8224836901        0.7120195593
  C        18.1355472308        3.1808967709       10.3171570519
  C        17.4063867098        4.2782504065       11.0158889085
  C        16.3901964659        4.0000025592       11.9429012455
  C        15.7425419280        5.0400608509       12.6063719579
  C        16.0950472290        6.3836951405       12.3671440257
  C        17.0850082565        6.6531314573       11.4039689113
  C        17.7340188911        5.6157041128       10.7389461195
  C        15.4706913737        7.4914328456       13.1301583528
  C        15.4858120401        7.4907020801       14.5518743948
  C        16.1872662947        6.4970060796       15.3050349852
  C        42.9457894511       31.8596273837       10.0728114085
  C        43.6461821171       30.7718674095       10.8168446623
  C        44.5917138221       31.0932039297       11.8028862670
  C        45.1974330437       30.0876775937       12.5505927832
  C        44.8709288523       28.7346363231       12.3358007622
  C        43.9450160767       28.4202602134       11.3226916871
  C        43.3361907789       29.4254046926       10.5746379410
  C        45.4886239538       27.6553485635       13.1389516883
  C        45.4927359715       27.6808499002       14.5606532601
  C        44.8055723702       28.6888332811       15.3072917449
  C        14.8568219106        8.5631890986       15.2642280819
  C        14.8755025873        8.5632348220       12.4515563108
  C        42.9463725559       31.9616789799        5.8089994847
  C        43.6916728608       30.8854591710        5.0954818825
  C        44.6564691926       31.1913744848        4.1234077526
  C        45.2780496352       30.1717936327        3.4056869892
  C        44.9540732611       28.8215106305        3.6431373259
  C        44.0202869018       28.5238233444        4.6536069783
  C        43.3919625534       29.5405902611        5.3657562444
  C        45.5631634976       27.7240927221        2.8579022141
  C        45.5333739032       27.7173209137        1.4366053856
  C        44.8268619178       28.7074410787        0.6836861430
  C        35.0989249771       26.6368692032        0.7518697046
  C        35.0589137117       26.6175216906        3.5619853125
  C        18.1487035566        3.2469233691        5.7066141820
  C        17.4301622323        4.3438295122        4.9972757833
  C        16.4145923953        4.0526070275        4.0741034589
  C        15.7663221334        5.0832724321        3.3987114308
  C        16.1214177469        6.4284408819        3.6210836649
  C        17.1132559789        6.7117870355        4.5778576996
  C        17.7608975974        5.6828382264        5.2576183526
  C        15.4908808137        7.5241591621        2.8486685396
  C        15.4967351736        7.5075628062        1.4275327955
  C        16.1934285355        6.5057970982        0.6808499118
  H        10.6726364943       12.4657876475        3.9043767929
  H        11.6950125282       10.5510372495        2.6625520012
  H        15.3918483934       11.1686419726        4.7723917596
  H        14.3513481103       13.0713449167        6.0175467117
  H        13.3765868292       11.6313421775        1.2013177990
  H        50.3228445697       22.7479275172        3.9862488834
  H        49.3197694976       24.6224177401        2.6803162177
  H        45.6430276426       24.1623147199        4.8647037851
  H        46.6638812612       22.2913479717        6.1729735175
  H        47.6303209107       23.5760589493        1.2461383899
  H        14.8725670240        8.5883394985        4.6085831366
  H        50.2871814614       22.7024846007       12.0607455093
  H        49.2692101213       24.5753136738       13.3607573996
  H        45.6111917778       24.1102471123       11.1452336790
  H        46.6532952068       22.2549621371        9.8308994365
  H        47.6082281470       23.5520360499       14.7968552368
  H        40.6573181099       17.1425678792       11.4262386904
  H        48.6872346256       14.0949896568        7.8000911722
  H        10.6816163392       12.4666132653       12.0935576914
  H        11.6901021466       10.5247467876       13.2971673517
  H        15.3938703266       11.1592042385       11.2055309712
  H        14.3652572410       13.0875422385        9.9903873163
  H        13.3763306867       11.6223643275       14.7531633697
  H        47.9303093070       14.2182748053        9.7110819485
  H        47.7801596923       14.3740308827        6.4955165439
  H        49.0848292677       18.5530967533       10.8677537492
  H        10.4165249072       14.1342495068        7.9987475745
  H        24.4851265910        3.0271304340        3.9170919887
  H        25.6311777568        4.8847475869        2.6942040713
  H        23.2675661012        7.7548831891        4.8558382863
  H        22.1390223400        5.8875747860        6.0798525927
  H        23.8160701744        5.7941599656        1.2746736431
  H        36.3645141329       32.1901887389        3.9785856427
  H        35.2211172263       30.3700795510        2.7109912328
  H        37.4716468589       27.4374608137        4.9098490135
  H        38.5957684679       29.2706558376        6.1865289470
  H        36.9994153012       29.4480828949        1.3015338928
  H        25.7674535362        8.6028227235        4.6551714547
  H        36.4589367870       32.2414599777       12.1182659923
  H        35.3495539777       30.4271870927       13.4188513356
  H        37.5426810830       27.4867089226       11.1711254687
  H        38.6270070810       29.3127175646        9.8580083509
  H        37.0374804845       29.4666674707       14.8539949398
  H        46.1094745899       26.5878932432       11.3856070641
  H        44.6682391706       35.1162018142        7.8139753135
  H        24.4280423196        3.0428685597       12.0972059298
  H        25.5546253116        4.8833352156       13.3499897445
  H        23.1631282598        7.7698974631       11.2417575729
  H        22.0479215689        5.9174113127        9.9890371966
  H        23.7842562198        5.7976309010       14.8263950060
  H        44.9537784112       34.3905204827        9.6953685738
  H        44.9015600329       34.2066618646        6.4907857367
  H        40.6661345991       33.2091987767       10.8532479693
  H        23.1503673809        1.9580399742        8.0057464228
  H        25.7829561685       19.6715152558        3.9386577571
  H        23.6211837890       19.6964738255        2.6982920255
  H        22.3655473729       16.1766541884        4.8269550768
  H        24.5417745025       16.1543288208        6.0545040412
  H        23.7208353756       17.6449714633        1.2468091343
  H        35.2107482882       15.3881037273        4.0680297710
  H        37.3241737988       15.3708151798        2.7368292350
  H        38.6619567752       18.8755047841        4.8386097414
  H        36.5359219334       18.8873008265        6.1594070438
  H        37.2284836186       17.3846162002        1.2513389016
  H        20.3537600209       17.9553974272        4.6670748192
  H        35.2130940771       15.4490674914       12.0602168622
  H        37.3499816781       15.3979949529       13.3570908394
  H        38.7249805729       18.8592885682       11.2060539071
  H        36.5870553418       18.8870721405        9.9032317116
  H        37.2452881476       17.3910456234       14.7970189445
  H        35.1605477680       26.6836609654       11.4088074767
  H        28.5093869085       21.0867199157        7.9731455384
  H        25.7589236692       19.6156293961       12.1769666272
  H        23.5733522450       19.6668200046       13.3885192069
  H        22.2981974340       16.1772173763       11.2214011533
  H        24.4834732835       16.1499410118       10.0027984944
  H        23.7011261552       17.6321261307       14.7963453690
  H        29.0002685280       21.7212936362        9.7658176313
  H        29.1426576806       21.7492152592        6.6102711393
  H        32.0820201062       18.5435642954       10.9958354038
  H        27.4039003869       19.0750236109        8.0833888054
  H        14.8512567963       19.6433781036       12.1445330514
  H        17.0145559224       19.6837250427       13.3868442103
  H        18.3022671618       16.1830324155       11.2455970919
  H        16.1347449362       16.1577602228       10.0036131401
  H        16.9204788076       17.6786466092       14.8435554806
  H        46.0920342992       15.4566210299       12.0806873146
  H        43.9694718207       15.4170678285       13.3942525990
  H        42.5663648489       18.8463668435       11.2084433571
  H        44.6891497907       18.8606971709        9.8854837080
  H        44.0308006905       17.3700418869       14.8438532508
  H        20.2923589940       17.9174013814       11.4199256981
  H        46.0375490019       15.3926455757        4.0332447332
  H        43.9048817258       15.3437950217        2.7373207336
  H        42.5277175316       18.8059364586        4.8863913546
  H        44.6669601383       18.8412378651        6.1820591999
  H        44.0141455905       17.3438481897        1.2943214428
  H        46.1996279215       26.6829024364        4.6233755672
  H        52.7413524285       21.0627297998        8.1947569595
  H        14.8808355506       19.6675809622        3.8914467095
  H        17.0811795111       19.7328220395        2.7097925413
  H        18.3294781899       16.2169197891        4.8488525774
  H        16.1312637750       16.1753505475        6.0397865798
  H        16.9397229894       17.6921109604        1.2913481574
  H        52.3230164263       21.6735064477        6.2940861738
  H        52.0136865417       21.7024126287        9.4957629706
  H        49.0684599593       18.6083458619        5.2039893291
  H        13.2478222787       19.0159669843        7.9771893778
  H        29.9282679306       12.4860748724       12.2738649585
  H        28.8586694847       10.5546854527       13.4427036367
  H        25.2557261390       11.1837110927       11.1797456555
  H        26.3469571821       13.1000208489       10.0000631307
  H        27.1367792479       11.6899267548       14.7955130995
  H        30.9973668196       22.7757857062       12.0194723440
  H        32.0044134446       24.6546329614       13.3168050041
  H        35.6956777169       24.1432700290       11.1684512647
  H        34.6665742905       22.2733098123        9.8633665866
  H        33.6647532686       23.5821122565       14.7614390568
  H        25.6988080010        8.5978812545       11.4096748701
  H        30.8999950416       22.6779603967        3.9248376080
  H        31.9104022674       24.5506404345        2.6237474980
  H        35.5379294393       24.1649700057        4.9042392409
  H        34.5074050849       22.3020989361        6.2108980552
  H        33.6141993542       23.5703022199        1.2106800160
  H        40.5984080644       17.1079003897        4.6642198910
  H        32.5147651730       14.1453738879        8.2601157883
  H        29.8880811008       12.5768515872        3.8712294926
  H        28.8638196587       10.6686259216        2.6250386712
  H        25.2445607921       11.1360891116        4.9018823636
  H        26.2926114105       13.0246660225        6.1591585215
  H        27.1447279292       11.7006489041        1.2435639297
  H        33.2999234860       14.2094212689        6.4482368271
  H        33.4086432801       14.4125136376        9.6049604711
  H        32.1234341175       18.6014029318        5.2057464327
  H        30.2225148329       14.1842549958        8.0814722573
  H        16.1177068116        2.9635416926       12.1289259269
  H        14.9527240805        4.8207799743       13.3216596610
  H        17.3680338862        7.6859359299       11.2113432315
  H        18.5165303919        5.8182412665       10.0115743602
  H        16.7537739295        5.7396490930       14.7715003017
  H        44.8280326104       32.1402977230       11.9769694690
  H        45.9373423449       30.3414678437       13.3064841538
  H        43.6822222568       27.3781983957       11.1526854975
  H        42.5994990858       29.1901152909        9.8100242766
  H        44.2301574719       29.4365499865       14.7689763249
  H        14.8519362714        8.5465118300       11.3633307951
  H        44.9001717724       32.2340577042        3.9321547001
  H        46.0251239654       30.4130366594        2.6526201557
  H        43.7630971254       27.4841135464        4.8449607180
  H        42.6452075329       29.3178558438        6.1239737511
  H        44.2683683126       29.4703067545        1.2183209756
  H        35.0079380980       26.6319645077        4.6490981852
  H        36.6052169303       35.1339542954        8.1806931449
  H        16.1432133850        3.0130565172        3.9046830459
  H        14.9737266938        4.8564852718        2.6889077851
  H        17.3972343728        7.7471964132        4.7543322371
  H        18.5441983274        5.8932224898        5.9819454869
  H        16.7647879383        5.7555210047        1.2193231458
  H        36.2788551535       34.4821613944        6.2732869255
  H        36.3809572520       34.2090107414        9.4996542436
  H        40.5790278575       33.2018280591        5.1539861382
  H        17.4709840838        1.9470350873        7.9741176176
  H        29.0137920384       19.2637573657       12.4727333850
  H        28.7416357739       18.8538620123        3.9498606922
  H        32.4008790027       16.5858299881        3.9738020711
  H        31.2689488382       15.5588545797       12.4762735161
  H        28.0058842846       17.6864512222       14.5491166522
  H        29.3374169360       15.3854860364       14.5872756428
  H        33.2672892242       15.5488068796        0.9528744450
  H        28.5361189930       18.4609937623        1.7908124493
  H        32.2757890187       18.3800480719       15.3281322714
  H        18.8532749778        0.8687809275       12.3353363808
  H        40.5280946159       35.2290264335        3.9521164344
  H        42.3237069660       34.4185976804        3.5906564712
  H        22.0875912808        0.6926688963       12.3510974317
  H        11.5967909204       18.7132528768       12.3829115050
  H        52.2649893879       18.4313887603        3.6770160829
  H        49.2551942666       16.4769654780        3.5845214947
  H        10.1511452703       15.7980871082       12.2921281543
  H        50.8503136442       17.6924578867        3.9541870954
  H        10.0466139230       17.3945161404       12.0519281614
  H        20.2146188113        0.0022495445       12.0419775434
  H        39.1837911160       36.1244742511        3.6864263878
 Ni        30.3141376048       17.3541350850        2.9170810246
 Ni        31.3270886403       16.0815260180       -0.3318724989
 Ni        29.7998170769       18.7700742107       -0.1650939951
 Ni        30.0108261183       17.3331048813       13.1536652533
  O        10.6499524837       14.3651121953        5.4858973843
  O        12.6131558302       14.6574833400        6.5838994679
  O        49.1481545279       16.8458559085        7.9897673719
  O        50.3503688755       20.9356328147        5.6480117467
  O        48.3486330874       20.5933192490        6.6658929520
  O        11.0519265251       17.0538006599        6.5006982692
  O        50.3211265179       20.8816416913       10.4068433593
  O        48.3468110922       20.5868234682        9.3272087490
  O        49.5438591998       18.2484073987       10.0683504816
  O        12.3591357058       18.6246726054        7.9997458685
  O        48.6932827518       14.1485434939        6.7513410203
  O         8.2099004538       14.2104025451        9.3225632947
  O        10.7353976433       14.5067674679       10.6642932227
  O        12.5718010212       14.5827975743        9.3285063915
  O        22.8446739296        2.0430149022        5.4872043611
  O        21.6060624475        3.5925081400        6.5891866426
  O        42.0580252923       34.1372882586        7.9789474547
  O        37.9813126951       33.1368356537        5.5725003206
  O        39.2175226144       31.5753628936        6.6660783064
  O        20.3083578959        1.0394843897        6.5020999142
  O        38.0244469987       33.1849622970       10.4157047879
  O        39.2185545079       31.5831371814        9.3272827456
  O        40.6521942327       33.7692537700       10.0601945749
  O        18.2557091510        1.3759133362        7.9968043501
  O        44.6222040352       35.1004963932        6.7587754561
  O        24.2053545165        0.0000394453        9.3207797022
  O        22.7529825784        2.0581683770       10.5840364197
  O        21.6244886574        3.5961245219        9.3427257180
  O        27.4868080526       18.7528400074        5.4980535069
  O        26.7609359540       16.9352164757        6.6552293529
  O        30.6707792088       19.4032373428        8.0731677595
  O        33.5866213486       16.2825975515        5.6577578566
  O        34.2773427556       18.1676035755        6.7361893023
  O        29.5783135685       17.0501925559        6.5845193135
  O        33.6152539730       16.3278228404       10.4122781186
  O        34.3052571663       18.2455036094        9.4061140879
  O        31.6554723451       18.3122852648       10.1534170151
  O        30.3223179442       15.1504882110        8.0858862067
  O        28.5515884043       21.0330186670        6.9031839759
  O        28.5135509469       20.9570507157        9.4127727845
  O        27.4557954056       18.6792508650       10.6575510984
  O        26.6942754127       16.9285773119        9.4123529021
  O        13.1489855520       18.6927907917       10.5875253741
  O        13.9191445547       16.9161243060        9.4047559221
  O        50.5966351452       19.3503680460        8.0206280964
  O        47.6830966027       16.3271764276       10.4175148453
  O        46.9521777462       18.1761304910        9.3242298531
  O        11.0698344673       17.0155900965        9.4896448479
  O        47.6762279094       16.3354898210        5.6530825888
  O        46.9288912681       18.2359376173        6.6656376321
  O        49.5690018391       18.3177100848        5.9823436791
  O        10.3187102546       15.1000580119        7.9971284005
  O        52.6707812237       21.0278614131        9.2418252671
  O        12.1468646792       20.8912158642        6.6732513193
  O        13.1082128812       18.6135614056        5.3256141782
  O        13.9566148668       16.9867289115        6.6658130400
  O        29.9935240208       14.4403457463       10.7277007495
  O        28.0892242638       14.6535780637        9.4945889084
  O        32.1357789461       16.8531242733        8.0732647627
  O        30.9649717021       20.9521483009       10.4103181968
  O        32.9464219523       20.6036875643        9.3409053878
  O        29.5674397626       17.0735358309        9.5728187142
  O        30.8539981386       20.8869929405        5.6602037496
  O        32.8726045855       20.5836982856        6.6656070677
  O        31.6803850517       18.2505145344        5.9939320595
  O        28.2885769912       18.6747202911        8.0763216670
  O        32.4938217953       14.2130955440        9.3318322690
  O        32.4046884493       14.2141441334        6.8256047120
  O        29.9219447977       14.4529104285        5.4848893213
  O        28.0413329786       14.5891866510        6.7515383286
  O        17.8892059126        1.9665919513       10.6628272387
  O        18.9562464610        3.5271049858        9.4079428079
  O        39.1685562413       34.1386607696        7.9971396569
  O        43.2802009678       33.0589600283       10.3317158790
  O        42.0344760653       31.5063811699        9.2416230936
  O        20.3175762839        1.0367381783        9.4801380113
  O        43.2761399060       33.1825508411        5.5748652188
  O        42.0052753929       31.5840687867        6.5829931261
  O        40.5789456962       33.7748923233        5.9358311439
  O        22.3673313184        1.3846952045        7.9979393224
  O        36.6727997087       35.0996845570        9.2333419590
  O        16.4456264648        0.0641907407        6.6682683077
  O        17.9364799087        2.0433666836        5.3263750517
  O        18.9190888200        3.5931305631        6.6659432762
  O        29.6916246131       18.7647844827        4.1585439762
  O        29.7881126524       18.8984018290       11.9995360375
  O        31.4787580991       16.2649252032        3.9957885805
  O        31.2991177337       16.4153854941       12.0044835252
  O        32.6962649086       16.3309552403        1.0794385163
  O        29.2641001028       17.8866949154        1.4906332156
  O        30.1705648887       15.7545029169       14.2486798695
  O        31.4367978796       17.9568195007       15.0822199752
  O        28.7438018812       18.2435753509       14.2472077258
  O        39.4568467882       35.2438200286        4.0019759431
  O        19.1412960265        0.0043696047       11.9905573464
  O        41.9695677343       35.1726717911        4.0871520476
  O        21.6913841624       -0.0691172650       11.8958593284
  O        51.3651930729       18.6142959812        4.0053702293
  O        10.7511819090       18.7471785950       11.9049961922
  O        50.0796135648       16.4127755771        4.0917585354
  O         9.5249759660       16.4829675691       11.9912193895
 Zr         9.2979903545       16.0526483274        6.1825837690
 Zr        49.8370809646       16.0066377945        9.7463467544
 Zr        22.0732590098        0.0301780291        6.1889254218
 Zr        42.4608505548       35.1538566312        9.8008870506
 Zr        29.6018930944       19.0921231354        6.3056085944
 Zr        29.5783230150       19.1741020076        9.8725136226
 Zr        11.0387870162       19.0520163156        9.8279375358
 Zr        11.0446152782       19.1548744645        6.2509042582
 Zr        31.3470435314       16.1031806573        9.8741993395
 Zr        31.3781194285       16.0009961734        6.2904343640
 Zr        18.6010810453       -0.0016123132        9.7633962264
 Zr        18.5065684834       -0.0078005781        6.2135944383
 Zr        12.3027096512       16.3233738974        7.9905170074
 Zr        48.6180058284       18.8336027973        8.0104933075
 Zr        20.3156420730        2.4737505598        7.9904229893
 Zr        40.6429785592       32.6870121441        7.9781406805
 Zr        28.3425314622       16.3353654722        8.0889388100
 Zr        32.6253058665       18.8402194822        8.0679453841
  H        32.2141305383       16.1433832931        1.9252931787
  H        28.8447328163       19.8446528256        0.1928331837
  H        31.1553797692       14.7088146730        0.1121295859
