     573
 i =      102, E =     -4762.7710457805
  C        11.8588355960       14.0534036387        5.7415561532
  C        12.4563454606       12.8905690506        5.0232736415
  C        11.7047557156       12.1716934697        4.0814705453
  C        12.2812135576       11.1095439740        3.3891271960
  C        13.6217719357       10.7397044567        3.6169728874
  C        14.3548318350       11.4432398574        4.5905570023
  C        13.7818769008       12.5081699037        5.2820700230
  C        14.2613275173        9.6490538539        2.8435885911
  C        14.2566025622        9.6569786540        1.4218948132
  C        13.7435170768       10.7591363132        0.6679805062
  C        49.1269625022       21.2332406120        5.8796461803
  C        48.5503362892       22.4012426141        5.1526433018
  C        49.3002544702       23.0682952471        4.1713654239
  C        48.7333661067       24.1074940879        3.4382136104
  C        47.4029757246       24.5095243188        3.6671153412
  C        46.6722088141       23.8609894716        4.6810017219
  C        47.2346050096       22.8160448061        5.4103217921
  C        46.7726852730       25.5871773995        2.8698293731
  C        46.7616591010       25.5575202263        1.4480648469
  C        47.2616131074       24.4424535527        0.7045405693
  C        14.8605370780        8.5706354543        0.7086352180
  C        14.8921177066        8.5971143308        3.5202516473
  C        49.1133663116       21.2035688893       10.1454328004
  C        48.5280847834       22.3649664265       10.8725049740
  C        49.2672217351       23.0255157410       11.8656136060
  C        48.6908980715       24.0600936821       12.5970425165
  C        47.3605732242       24.4571033928       12.3586290867
  C        46.6403116931       23.8124296300       11.3348336300
  C        47.2138514867       22.7765165913       10.6030663961
  C        46.7220772701       25.5320187785       13.1496802271
  C        46.7338161528       25.5283276358       14.5713856512
  C        47.2493180427       24.4291525800       15.3277787436
  C        40.6332284225       17.1258713570       15.3211911143
  C        40.6503751426       17.1588472033       12.5125636456
  C        11.8830922302       14.0864346889       10.2855676331
  C        12.4724532949       12.9107539110       10.9897724471
  C        11.7150589886       12.1775495316       11.9160029126
  C        12.2817548130       11.0951337098       12.5843658810
  C        13.6205767571       10.7214111834       12.3524300790
  C        14.3584103551       11.4369744965       11.3915084577
  C        13.7928882617       12.5181098409       10.7188539053
  C        14.2542330155        9.6246857151       13.1228203800
  C        14.2528566317        9.6446529650       14.5446539906
  C        13.7430189088       10.7536195235       15.2917275682
  C        22.5162727934        3.2472244699        5.7525314807
  C        23.2386638234        4.3518248498        5.0552255594
  C        24.2343313567        4.0685660624        4.1078764526
  C        24.8703066616        5.1051032339        3.4282531659
  C        24.5286750729        6.4502098481        3.6741605069
  C        23.5611346299        6.7247717000        4.6584386357
  C        22.9201334842        5.6898749243        5.3364490861
  C        25.1408154238        7.5548508677        2.8965003704
  C        25.1002895567        7.5514940969        1.4744565024
  C        24.3886544037        6.5563247740        0.7316647115
  C        38.2982022537       31.9283360105        5.8521295435
  C        37.5569798254       30.8400173673        5.1508575098
  C        36.5936355671       31.1473661155        4.1775531902
  C        35.9639393240       30.1296276046        3.4663122972
  C        36.2821940072       28.7782741182        3.7052335525
  C        37.2145744506       28.4784505935        4.7164572525
  C        37.8484084830       29.4951468109        5.4270267315
  C        35.6727721647       27.6901073001        2.9061891764
  C        35.7151892605       27.7034814516        1.4846080659
  C        36.4303778000       28.7027677729        0.7518435583
  C        25.7196505333        8.6213232505        0.7504036489
  C        25.7541675217        8.6244166915        3.5623572607
  C        38.3305454224       31.9607453436       10.1604223588
  C        37.6144108119       30.8877782746       10.9101743861
  C        36.6835326439       31.1973983872       11.9139234285
  C        36.0744931887       30.1804851627       12.6473283334
  C        36.3808808213       28.8268014075       12.4015068839
  C        37.2924158345       28.5271385529       11.3702144839
  C        37.9034643506       29.5405648197       10.6380140035
  C        35.7663564992       27.7283824540       13.1837477237
  C        35.7629367338       27.7232156044       14.6063815081
  C        36.4518146418       28.7131654653       15.3752213627
  C        46.1357309188       26.6209063025       15.2815463219
  C        46.0880251291       26.5803478384       12.4736505993
  C        22.4608600158        3.2568095367       10.2588009654
  C        23.1538135837        4.3659072419       10.9830316531
  C        24.1528021525        4.0803896147       11.9274845677
  C        24.7804601711        5.1107356644       12.6237529107
  C        24.4302604073        6.4572816811       12.3984220329
  C        23.4538219643        6.7358434244       11.4230184872
  C        22.8212525173        5.7057515261       10.7274780152
  C        25.0633828195        7.5561153894       13.1706475077
  C        25.0606858652        7.5515002695       14.5938898692
  C        24.3684202341        6.5569738723       15.3546639969
  C        26.6124569862       17.8553217137        5.7835616951
  C        25.3083449005       17.9003850029        5.0590761094
  C        25.0455878242       18.8977304967        4.1061912177
  C        23.8339744180       18.9126501889        3.4182261352
  C        22.8473407956       17.9359930019        3.6636130491
  C        23.1056274588       16.9623197845        4.6471788008
  C        24.3200663840       16.9397384513        5.3307045126
  C        21.5748497805       17.9187210751        2.8986360449
  C        21.5766607484       17.8959198988        1.4762152131
  C        22.7829096754       17.7707566741        0.7171443291
  C        34.4534081419       17.2014835507        5.9277779508
  C        35.7463658936       17.1462466154        5.1881371343
  C        35.9677936252       16.1540880811        4.2196308448
  C        37.1436331112       16.1469942085        3.4753725176
  C        38.1323871977       17.1275419902        3.6846471567
  C        37.9171417627       18.0975835004        4.6817281940
  C        36.7366675479       18.1126381368        5.4204137830
  C        39.3844034000       17.1365177986        2.8955331099
  C        39.3770356386       17.1415747468        1.4743562732
  C        38.1680223018       17.2532787382        0.7179444667
  C        20.3305696760       17.9138933314        0.7668215671
  C        20.3498331872       17.9219614535        3.5803680550
  C        34.4723647694       17.2438251663       10.1855503934
  C        35.7730352613       17.1696108242       10.9105491237
  C        35.9898486807       16.1782662601       11.8789777147
  C        37.1767237946       16.1565875552       12.6054932969
  C        38.1732435262       17.1261658522       12.3829977236
  C        37.9624043938       18.0936911272       11.3834584420
  C        36.7738857040       18.1198259439       10.6592137226
  C        39.4200123066       17.1422045331       13.1779981496
  C        39.3958005241       17.1469432015       14.5988689537
  C        38.1770411998       17.2554098608       15.3408749588
  C        35.1232580720       26.6464125644       15.3065992417
  C        35.1795488441       26.6575759089       12.4969409124
  C        26.5728362630       17.8267019748       10.3248729453
  C        25.2592328427       17.8674662410       11.0335481061
  C        24.9956270941       18.8689320424       11.9802741075
  C        23.7777641059       18.8917213897       12.6543473066
  C        22.7945927206       17.9133800152       12.4046671737
  C        23.0532141750       16.9362923029       11.4264109022
  C        24.2719323497       16.9109630327       10.7511780430
  C        21.5303180935       17.8928252680       13.1764970407
  C        21.5533188010       17.8801065405       14.5979851105
  C        22.7711553024       17.7626097316       15.3406567157
  C        14.0470982963       17.8284248753       10.2890245435
  C        15.3517638322       17.8837931006       11.0140297404
  C        15.6093693912       18.8839754249       11.9646035252
  C        16.8187218950       18.9020208532       12.6570662947
  C        17.8049938668       17.9228391957       12.4211368685
  C        17.5523173317       16.9473355664       11.4381047592
  C        16.3423800348       16.9245020355       10.7474650240
  C        19.0740023888       17.9023598789       13.1903191960
  C        19.0718947108       17.8956617077       14.6127865594
  C        17.8644886603       17.7953032992       15.3732323730
  C        46.8061950834       17.2194262748       10.1591279903
  C        45.5172572302       17.1601160403       10.9063668906
  C        45.3117559863       16.1843976868       11.8938101693
  C        44.1309978275       16.1693450060       12.6312838009
  C        43.1267932616       17.1301213126       12.4025637112
  C        43.3296504115       18.0857220419       11.3888133491
  C        44.5111572984       18.1046939891       10.6525007151
  C        41.8742781524       17.1428882998       13.1911278173
  C        41.8799508653       17.1416037235       14.6127044851
  C        43.0890163332       17.2387560266       15.3708155306
  C        20.3181725002       17.9050816576       15.3218954133
  C        20.2987321867       17.8840472941       12.5088870489
  C        46.7872861271       17.2318356502        5.8898797650
  C        45.4846035497       17.1291938516        5.1744105853
  C        45.2645401896       16.1323232405        4.2122530687
  C        44.0770124769       16.1103721420        3.4855607766
  C        43.0819150014       17.0823376604        3.7050271697
  C        43.2921283227       18.0488891196        4.7057832484
  C        44.4807206426       18.0771505578        5.4274726565
  C        41.8365867252       17.1081182570        2.9086990528
  C        41.8608361075       17.1218134871        1.4881571384
  C        43.0802021856       17.2265821537        0.7474218271
  C        46.1535218593       26.6373300743        0.7263098860
  C        46.1626774333       26.6562891061        3.5359536727
  C        14.0449713751       17.8303278873        5.7079628164
  C        15.3651270493       17.9008785376        5.0159699310
  C        15.6402486197       18.9141352866        4.0856003196
  C        16.8692065311       18.9477683212        3.4305577062
  C        17.8504733285       17.9672734466        3.6802546258
  C        17.5819720399       16.9826077379        4.6483142690
  C        16.3550931080       16.9484179107        5.3068159390
  C        19.1180560657       17.9395071298        2.9122663547
  C        19.0950555858       17.9139498189        1.4908433393
  C        17.8757509320       17.8036227989        0.7494844832
  C        28.8115077932       14.0847312576       10.3618051587
  C        28.2027032400       12.9145955521       11.0580598435
  C        28.9225225548       12.1838982693       12.0148348293
  C        28.3223300216       11.1123390511       12.6722205392
  C        26.9886480926       10.7463845416       12.3972992194
  C        26.2909636133       11.4585254778       11.4049998879
  C        26.8880120609       12.5306496613       10.7469413588
  C        26.3184223369        9.6684314166       13.1615028836
  C        26.3079716907        9.6965263998       14.5826818106
  C        26.8080657419       10.8126100788       15.3252527436
  C        32.1787564935       21.2405363380       10.1506657241
  C        32.7734634592       22.4059072103       10.8702891762
  C        32.0233907087       23.0867799914       11.8416299674
  C        32.5929962372       24.1271378816       12.5695391716
  C        33.9289070883       24.5147941335       12.3486819353
  C        34.6615856560       23.8525657770       11.3454042333
  C        34.0942096745       22.8071676504       10.6188455292
  C        34.5563345135       25.5895077428       13.1522613774
  C        34.5363065630       25.5627386880       14.5743199150
  C        34.0196443731       24.4494431395       15.3097972361
  C        25.7028020213        8.6183053619       15.3051710065
  C        25.6792551503        8.6165534369       12.4915304016
  C        32.0792159425       21.2040080670        5.8801156854
  C        32.6438522215       22.3716088327        5.1426016953
  C        31.9121922852       23.0127572813        4.1308901781
  C        32.4848403494       24.0516510563        3.3988938018
  C        33.8026180093       24.4791310985        3.6577134287
  C        34.5136504584       23.8527804371        4.7000541848
  C        33.9468551136       22.8107317450        5.4279084946
  C        34.4455150063       25.5613467896        2.8751278066
  C        34.4776153190       25.5489696219        1.4526314669
  C        33.9901118950       24.4436028353        0.6865211694
  C        40.6233228535       17.1194577128        0.7652875836
  C        40.6070171475       17.1369487719        3.5751505029
  C        28.7699813929       14.1070050858        5.7754692809
  C        28.1757993101       12.9495650221        5.0418915801
  C        28.8969022449       12.2803159752        4.0410118202
  C        28.3227841767       11.2091930489        3.3587759776
  C        27.0096245492       10.7825076173        3.6465080093
  C        26.3079544988       11.4407989706        4.6742682751
  C        26.8808719232       12.5086581517        5.3609551419
  C        26.3620082145        9.6889754295        2.8813038399
  C        26.3311440195        9.7075090997        1.4591751455
  C        26.8160975278       10.8194788415        0.7009975531
  C        18.1356625248        3.1809093441       10.3170565224
  C        17.4064752087        4.2782543859       11.0157762891
  C        16.3903679409        3.9999708464       11.9428795093
  C        15.7426985215        5.0399961886       12.6063841980
  C        16.0950841129        6.3836542945       12.3671030966
  C        17.0849494544        6.6531258498       11.4038339710
  C        17.7339778386        5.6157311320       10.7387729043
  C        15.4706992457        7.4913684462       13.1301309287
  C        15.4858255279        7.4906437648       14.5518505011
  C        16.1872485021        6.4969423765       15.3050324783
  C        42.9457872866       31.8596347771       10.0728318812
  C        43.6461604137       30.7719144630       10.8168865541
  C        44.5917569272       31.0932603189       11.8028706543
  C        45.1974995597       30.0877359978       12.5505582220
  C        44.8710159334       28.7346815032       12.3357825110
  C        43.9450716231       28.4203078736       11.3226973627
  C        43.3362260650       29.4254383180       10.5746455047
  C        45.4887068805       27.6553967119       13.1389419456
  C        45.4928923280       27.6809701163       14.5606426483
  C        44.8057553486       28.6889755032       15.3072749616
  C        14.8568305207        8.5631296624       15.2642033032
  C        14.8755071840        8.5631760914       12.4515301011
  C        42.9463893530       31.9617607319        5.8089948076
  C        43.6916792865       30.8855692683        5.0954670513
  C        44.6564798719       31.1914819497        4.1233906377
  C        45.2780604405       30.1719021576        3.4056755317
  C        44.9541010277       28.8216068541        3.6431260042
  C        44.0203398947       28.5239244644        4.6536253924
  C        43.3920199328       29.5406901168        5.3657764786
  C        45.5632347184       27.7242024989        2.8579054259
  C        45.5334804523       27.7174449457        1.4366048881
  C        44.8270641467       28.7076202139        0.6836675513
  C        35.0959388952       26.6380373823        0.7520898141
  C        35.0551188261       26.6192675655        3.5622341107
  C        18.1487946178        3.2469613603        5.7066220561
  C        17.4302136504        4.3438730768        4.9973707171
  C        16.4146727784        4.0526315150        4.0741557614
  C        15.7663972440        5.0832716295        3.3987360900
  C        16.1214287137        6.4284602033        3.6211265359
  C        17.1132032266        6.7118265691        4.5779681027
  C        17.7608685448        5.6828992454        5.2577487467
  C        15.4908975105        7.5241563706        2.8486680452
  C        15.4967305339        7.5075178840        1.4275286865
  C        16.1934131295        6.5057436385        0.6808491585
  H        10.6726422547       12.4658092151        3.9043618683
  H        11.6950313324       10.5510844849        2.6624879197
  H        15.3918627767       11.1686741347        4.7723455342
  H        14.3513342382       13.0713493585        6.0175431568
  H        13.3766147440       11.6313183436        1.2012688462
  H        50.3228508922       22.7480384442        3.9863741645
  H        49.3198027774       24.6225632770        2.6804640958
  H        45.6429016369       24.1621719095        4.8645363517
  H        46.6637315903       22.2911828778        6.1727746526
  H        47.6302413695       23.5760958741        1.2461885499
  H        14.8725742075        8.5883925648        4.6085609273
  H        50.2872056990       22.7025572678       12.0606757050
  H        49.2692559888       24.5754374052       13.3606476526
  H        45.6110344214       24.1099514882       11.1455201551
  H        46.6531268210       22.2546245888        9.8312562667
  H        47.6081626694       23.5520524242       14.7969001033
  H        40.6555789836       17.1293954329       11.4246794932
  H        48.6872682363       14.0949603609        7.8001177808
  H        10.6815870538       12.4665517036       12.0934940753
  H        11.6900881020       10.5247089624       13.2971387724
  H        15.3938605311       11.1591860030       11.2055234567
  H        14.3652239318       13.0875069225        9.9903445706
  H        13.3763447887       11.6223003514       14.7530980436
  H        47.9302755527       14.2184582351        9.7109610417
  H        47.7801603514       14.3741592452        6.4955889376
  H        49.0845499864       18.5528367368       10.8676844999
  H        10.4164359405       14.1342624836        7.9987666343
  H        24.4881147671        3.0288219701        3.9134874511
  H        25.6410704539        4.8816234979        2.6937377890
  H        23.2875764469        7.7590679715        4.8567082701
  H        22.1515238360        5.8963201420        6.0773984055
  H        23.8284276738        5.8008428708        1.2748075877
  H        36.3634463974       32.1916312574        3.9799692251
  H        35.2180231947       30.3727086840        2.7127449910
  H        37.4681338879       27.4380700924        4.9093609660
  H        38.5940087438       29.2701130631        6.1860135004
  H        36.9929020710       29.4516564839        1.3016539252
  H        25.8022883524        8.6033952018        4.6496751150
  H        36.4565655064       32.2417238390       12.1162536955
  H        35.3461871986       30.4279706157       13.4164796231
  H        37.5428934620       27.4868454950       11.1731438462
  H        38.6279064933       29.3122866173        9.8599854100
  H        37.0316140733       29.4697805355       14.8543004247
  H        46.1094346933       26.5878243528       11.3856155035
  H        44.6682324426       35.1162095503        7.8139384447
  H        24.4287647470        3.0421160513       12.0973584517
  H        25.5590669065        4.8812851306       13.3481042682
  H        23.1710870048        7.7704286196       11.2393714644
  H        22.0520370414        5.9191900626        9.9888334498
  H        23.7920824039        5.8025707976       14.8269233589
  H        44.9535596684       34.3903890929        9.6952772079
  H        44.9012170414       34.2066321710        6.4906688836
  H        40.6660677975       33.2093067012       10.8532039467
  H        23.1506700775        1.9582686013        8.0053484762
  H        25.7999522320       19.6590750419        3.9209983223
  H        23.6360323016       19.6908682929        2.6842341479
  H        22.3555757597       16.1993211917        4.8452421213
  H        24.5306396180       16.1732609731        6.0728958686
  H        23.7237931167       17.6501187332        1.2463565704
  H        35.2044849196       15.3953783592        4.0637666046
  H        37.3159768373       15.3727648130        2.7308592862
  H        38.6746418316       18.8609149552        4.8471814083
  H        36.5517827249       18.8765474363        6.1721807085
  H        37.2280309212       17.3719175292        1.2496189115
  H        20.3556800690       17.9634245509        4.6681850311
  H        35.2090479441       15.4430843109       12.0585661051
  H        37.3460483718       15.3850986689       13.3534213435
  H        38.7263485637       18.8485526929       11.2091884205
  H        36.5880370474       18.8836172535        9.9078962676
  H        37.2440035577       17.3747814131       14.7974038666
  H        35.1607069024       26.6826019495       11.4090227397
  H        28.5092024687       21.0879461774        7.9739052123
  H        25.7575114511       19.6220186433       12.1691648332
  H        23.5729652492       19.6724650944       13.3837224385
  H        22.3025979933       16.1737739115       11.2286670183
  H        24.4880133294       16.1448213241       10.0104232464
  H        23.7029882137       17.6363880866       14.7975874677
  H        29.0029174489       21.7205620168        9.7641510416
  H        29.1297709636       21.7579698471        6.6076128897
  H        32.0724984040       18.5391419078       10.9908333083
  H        27.4065700157       19.0784355235        8.0807072832
  H        14.8514202246       19.6428426770       12.1456934081
  H        17.0144744425       19.6837742908       13.3878743540
  H        18.3031992920       16.1834932868       11.2465566719
  H        16.1359299083       16.1577252208       10.0045760931
  H        16.9223791633       17.6795062765       14.8452888171
  H        46.0943199100       15.4516701185       12.0762725672
  H        43.9713862161       15.4051344131       13.3887578965
  H        42.5620799035       18.8355429858       11.2087737908
  H        44.6851810414       18.8566322054        9.8864114958
  H        44.0300749988       17.3553655234       14.8408951601
  H        20.2935943403       17.9171909064       11.4208433534
  H        46.0396747618       15.3901496462        4.0354863561
  H        43.9075700715       15.3376438685        2.7388770988
  H        42.5279682137       18.8033764114        4.8805158577
  H        44.6664508920       18.8419966046        6.1774512074
  H        44.0143922765       17.3327366537        1.2912195671
  H        46.1995609575       26.6829244677        4.6233957957
  H        52.7413343587       21.0627219883        8.1947422505
  H        14.8813265435       19.6691900974        3.8927035017
  H        17.0820152320       19.7364641250        2.7121007366
  H        18.3309056937       16.2190706932        4.8483541149
  H        16.1323144573       16.1754691660        6.0382951898
  H        16.9421243393       17.6941516821        1.2930368327
  H        52.3228682568       21.6734307493        6.2941292369
  H        52.0136226565       21.7023436139        9.4957637989
  H        49.0683654079       18.6082832164        5.2040328399
  H        13.2478402715       19.0159713101        7.9772355452
  H        29.9488807082       12.4713638448       12.2321004169
  H        28.8825309969       10.5461444140       13.4131661338
  H        25.2604204655       11.1877089455       11.1846176924
  H        26.3454099210       13.1015650992        9.9975293548
  H        27.1599684482       11.6851632078       14.7832364175
  H        30.9979222930       22.7743783285       12.0232787513
  H        32.0054477429       24.6529392402       13.3189511452
  H        35.6956407842       24.1414879154       11.1687305114
  H        34.6665335721       22.2708958012        9.8654275427
  H        33.6695390350       23.5789234626       14.7623908979
  H        25.7072518276        8.5947675987       11.4034942596
  H        30.9000872454       22.6744795618        3.9199484596
  H        31.9097911114       24.5473888429        2.6198235489
  H        35.5331469044       24.1705656663        4.9084635612
  H        34.5043013919       22.3063153164        6.2135244981
  H        33.6175045484       23.5680595317        1.2105241504
  H        40.6007352508       17.1042298052        4.6629588367
  H        32.5150665871       14.1449651054        8.2561991123
  H        29.9069274507       12.6138831541        3.8132584232
  H        28.8922369339       10.6873239650        2.5928144299
  H        25.2918991910       11.1274523023        4.9052653329
  H        26.3329745153       13.0296223508        6.1422989620
  H        27.1718386712       11.6986095004        1.2300453099
  H        33.2963390161       14.2025412184        6.4423716641
  H        33.4112569932       14.4141869991        9.5990849845
  H        32.1077265788       18.6013853608        5.1937184093
  H        30.2287683905       14.1881123756        8.0748618373
  H        16.1179639737        2.9634957788       12.1289516242
  H        14.9529404259        4.8206690726       13.3217217552
  H        17.3678630423        7.6859478110       11.2111387634
  H        18.5164074348        5.8183137605       10.0113236317
  H        16.7537647762        5.7395757946       14.7715222431
  H        44.8280599295       32.1403544388       11.9769732857
  H        45.9374274217       30.3415286708       13.3064310243
  H        43.6822734949       27.3782460633       11.1527007089
  H        42.5995178535       29.1901159515        9.8100606864
  H        44.2303592086       29.4367063002       14.7689597397
  H        14.8519078722        8.5464523354       11.3633058386
  H        44.9001557027       32.2341641676        3.9321045794
  H        46.0251238995       30.4131492107        2.6525989655
  H        43.7631661112       27.4842130320        4.8449942434
  H        42.6452732136       29.3179260141        6.1239907500
  H        44.2685494034       29.4704850146        1.2182811801
  H        35.0038387149       26.6338966883        4.6493308940
  H        36.6052574169       35.1339983369        8.1808325530
  H        16.1433278086        3.0130751790        3.9047191338
  H        14.9738390986        4.8564522166        2.6889013786
  H        17.3971131977        7.7472501256        4.7544752667
  H        18.5441476191        5.8933216372        5.9820899551
  H        16.7647640670        5.7554616889        1.2193211342
  H        36.2789233692       34.4821841600        6.2732932216
  H        36.3813694353       34.2088803150        9.4996713559
  H        40.5789736998       33.2019688468        5.1540058572
  H        17.4713767905        1.9471095023        7.9741157997
  H        29.1607382783       19.2778389929       12.5151113376
  H        28.7735905072       18.4753051988        4.0471841964
  H        32.4942436157       16.7210460441        3.9918826107
  H        31.3551898316       15.5589442002       12.4931225487
  H        28.0096714690       17.8627458787       14.3171165729
  H        29.3815135915       15.4205633971       14.5845406297
  H        33.2203987950       15.3830019218        1.0573103875
  H        28.8577682926       18.9070904494        2.0200097355
  H        32.0433663352       18.3959655301       16.0198423576
  H        18.8540384498        0.8689313155       12.3354893902
  H        40.5277846616       35.2290535881        3.9520612294
  H        42.3241724135       34.4189081883        3.5907188064
  H        22.0878882579        0.6926528915       12.3510432163
  H        11.5972644016       18.7129367470       12.3825942431
  H        52.2647687309       18.4315370404        3.6768615303
  H        49.2553622436       16.4769783520        3.5845099437
  H        10.1510689639       15.7980807913       12.2922547589
  H        50.8502121931       17.6923470028        3.9542303436
  H        10.0466799546       17.3944688205       12.0519378702
  H        20.2156389247        0.0024614408       12.0418805965
  H        39.1836315545       36.1244826318        3.6864709541
 Ni        30.4762748301       17.4575201280        2.8355022794
 Ni        31.3225424489       16.0820582374       -0.1657255735
 Ni        29.5873780231       18.6464016137       -0.1637376745
 Ni        30.0138492346       17.2872560214       13.0756278480
  O        10.6499401679       14.3650636368        5.4859002068
  O        12.6131564022       14.6574941277        6.5839103180
  O        49.1481476112       16.8458788395        7.9897895962
  O        50.3503520591       20.9356925790        5.6480419695
  O        48.3486247678       20.5933226639        6.6659090564
  O        11.0519705188       17.0537916908        6.5007193891
  O        50.3211229372       20.8816251060       10.4068711397
  O        48.3468144675       20.5868070751        9.3272150782
  O        49.5438819661       18.2484359659       10.0683488896
  O        12.3591548150       18.6246851539        7.9997619759
  O        48.6932747754       14.1485371797        6.7513518241
  O         8.2099076198       14.2103859578        9.3225284543
  O        10.7353972557       14.5067486613       10.6643366752
  O        12.5718105366       14.5828030932        9.3285122436
  O        22.8458052071        2.0449809531        5.4865207965
  O        21.6076877202        3.5940097450        6.5876152707
  O        42.0580700364       34.1374230233        7.9787546680
  O        37.9813292559       33.1370145020        5.5725698521
  O        39.2173944162       31.5753528275        6.6659809213
  O        20.3085544244        1.0397759885        6.5020876227
  O        38.0244262910       33.1849563783       10.4157281424
  O        39.2184887126       31.5830443833        9.3273835879
  O        40.6522381141       33.7693321046       10.0601200194
  O        18.2560460744        1.3759096662        7.9967915096
  O        44.6222064481       35.1005612085        6.7587400541
  O        24.2053550627        0.0000735934        9.3207603251
  O        22.7531135576        2.0584622556       10.5841679274
  O        21.6248164083        3.5965306917        9.3431253314
  O        27.4942984190       18.7494407533        5.4933031076
  O        26.7617829016       16.9355456543        6.6545658901
  O        30.6713747670       19.4022788791        8.0690358242
  O        33.5918889638       16.2835616908        5.6618711228
  O        34.2798077513       18.1692331015        6.7379243423
  O        29.5818169216       17.0551474628        6.5834004741
  O        33.6131453490       16.3259122506       10.4110238684
  O        34.3060307000       18.2439721916        9.4064746378
  O        31.6632899829       18.3080283079       10.1392404952
  O        30.3253923781       15.1547424797        8.0743210927
  O        28.5516106839       21.0328492637        6.9034903976
  O        28.5139209585       20.9570367194        9.4125608796
  O        27.4573521169       18.6797545409       10.6571934095
  O        26.6948422129       16.9291346151        9.4113485471
  O        13.1492603126       18.6927124852       10.5876181416
  O        13.9193489725       16.9161412446        9.4049106610
  O        50.5965683575       19.3503438918        8.0206352741
  O        47.6835716992       16.3269741578       10.4173461020
  O        46.9519723328       18.1759673432        9.3244989652
  O        11.0699146709       17.0155535361        9.4896497772
  O        47.6764902970       16.3354790962        5.6532113958
  O        46.9287127457       18.2359278073        6.6654837207
  O        49.5689756318       18.3177106438        5.9823747460
  O        10.3187352295       15.1000814388        7.9971153751
  O        52.6708006471       21.0278686019        9.2418307715
  O        12.1468687455       20.8912034563        6.6732407390
  O        13.1082844733       18.6135193366        5.3255599943
  O        13.9568295632       16.9868277239        6.6656690347
  O        30.0016295508       14.4339619615       10.6634671819
  O        28.0793881281       14.6566812242        9.4825678986
  O        32.1359290206       16.8524659085        8.0650162781
  O        30.9639912379       20.9504585406       10.4106423451
  O        32.9453324778       20.6040839737        9.3404331266
  O        29.5673094508       17.0723613869        9.5697133272
  O        30.8539879275       20.8829996108        5.6564741986
  O        32.8716784396       20.5846594229        6.6654693973
  O        31.6847302436       18.2519365744        5.9943290647
  O        28.2901655145       18.6756021545        8.0737817715
  O        32.4960107236       14.2122968528        9.3286357491
  O        32.4021590467       14.2170663627        6.8222159129
  O        29.9326336788       14.5144074324        5.4180494668
  O        28.0623777947       14.5899476987        6.7324644502
  O        17.8892740877        1.9666046793       10.6627604693
  O        18.9563737455        3.5270773013        9.4078329754
  O        39.1685901409       34.1386713596        7.9971554392
  O        43.2802211957       33.0589949065       10.3316877568
  O        42.0344719816       31.5064535682        9.2415985865
  O        20.3177900335        1.0370134472        9.4797799795
  O        43.2760918881       33.1826717870        5.5749024137
  O        42.0052729160       31.5841487117        6.5829894955
  O        40.5789783232       33.7749884214        5.9358848018
  O        22.3675554352        1.3850076241        7.9977911805
  O        36.6728660777       35.0996927141        9.2334138889
  O        16.4456782717        0.0642381142        6.6682516945
  O        17.9364833790        2.0434104131        5.3264258779
  O        18.9192891615        3.5931420437        6.6659365562
  O        29.7276946514       18.6786821679        4.1483712409
  O        29.8395917986       18.8335683996       11.9660019466
  O        31.6011941177       16.3337191698        3.9105743998
  O        31.3046029753       16.4014454098       11.9989316618
  O        32.6964219226       16.1836497642        1.2510142843
  O        29.3572115543       18.1825601559        1.5986251600
  O        30.2202048181       15.8324736977       14.3196126139
  O        31.4188464936       17.9605197460       15.4141944731
  O        28.8552726497       18.3090163200       14.1380890967
  O        39.4567244048       35.2438323528        4.0020058909
  O        19.1421431378        0.0046563710       11.9904597804
  O        41.9696410077       35.1728012179        4.0872056463
  O        21.6915350415       -0.0690719823       11.8958237593
  O        51.3650093395       18.6143101454        4.0053818429
  O        10.7515118174       18.7470676371       11.9049350936
  O        50.0797867005       16.4127633547        4.0917434673
  O         9.5249879723       16.4829815357       11.9912236335
 Zr         9.2978728517       16.0526440181        6.1826108608
 Zr        49.8370635330       16.0066357102        9.7463435823
 Zr        22.0733941205        0.0307000751        6.1886893793
 Zr        42.4608553008       35.1538637443        9.8007043324
 Zr        29.6127264194       19.0973189474        6.3072069400
 Zr        29.5794205836       19.1717363751        9.8644136957
 Zr        11.0387747490       19.0519757982        9.8279051565
 Zr        11.0445139258       19.1548360675        6.2509325488
 Zr        31.3493460184       16.1001089300        9.8563878414
 Zr        31.3861264335       16.0113084341        6.2673737017
 Zr        18.6012948285       -0.0014683337        9.7634710365
 Zr        18.5065932265       -0.0077844570        6.2137626259
 Zr        12.3027325358       16.3234481017        7.9904889814
 Zr        48.6177700031       18.8335272274        8.0105442320
 Zr        20.3163169616        2.4743193795        7.9899889079
 Zr        40.6430353373       32.6869935026        7.9780876307
 Zr        28.3449240653       16.3368922399        8.0849342983
 Zr        32.6331945105       18.8388460330        8.0692399256
  H        32.2675161624       15.9947762150        2.1374977163
  H        28.4189632212       19.4881259005        0.0281689393
  H        31.1654533451       14.6634647159        0.1424900762
