     570
 i =      152, E =     -4745.5176151528
  C        11.8594428250       14.0530566902        5.7414820136
  C        12.4566240845       12.8900475995        5.0234089799
  C        11.7051400095       12.1716662097        4.0811487908
  C        12.2815330413       11.1095061165        3.3887822604
  C        13.6219028665       10.7392630472        3.6170282916
  C        14.3547963018       11.4422609069        4.5911412264
  C        13.7819117137       12.5071593202        5.2827312682
  C        14.2615157718        9.6487627308        2.8435199390
  C        14.2568933721        9.6568258629        1.4218175711
  C        13.7438996776       10.7590721918        0.6679670632
  C        49.1255286576       21.2323128395        5.8794648823
  C        48.5483687805       22.4002371060        5.1527794422
  C        49.2980999303       23.0669097406        4.1710518933
  C        48.7312813316       24.1060650280        3.4378551868
  C        47.4010727345       24.5085207362        3.6670934569
  C        46.6704994772       23.8604655122        4.6814309468
  C        47.2328719095       22.8155250200        5.4108399349
  C        46.7710194986       25.5862512239        2.8697077142
  C        46.7601232694       25.5565702935        1.4479196910
  C        47.2597817524       24.4413419468        0.7044241525
  C        14.8608390766        8.5705215610        0.7084995081
  C        14.8922439117        8.5967520308        3.5201148639
  C        49.1126258794       21.2026334463       10.1445390447
  C        48.5272866755       22.3640574285       10.8720339398
  C        49.2663517193       23.0246259962       11.8651618075
  C        48.6899685906       24.0590922673       12.5967724977
  C        47.3596142471       24.4560228526       12.3584908939
  C        46.6393105865       23.8112239913       11.3348087007
  C        47.2129337114       22.7753942426       10.6029342673
  C        46.7211886913       25.5310832457       13.1494914580
  C        46.7326961208       25.5274254577       14.5712087920
  C        47.2477459837       24.4280800508       15.3276544246
  C        40.6245659416       17.1611025828       15.3397161519
  C        40.6619232093       17.1958186024       12.5307773898
  C        11.8829917467       14.0865650257       10.2855754359
  C        12.4723845613       12.9108637586       10.9898867745
  C        11.7150502226       12.1776739541       11.9161560875
  C        12.2817567029       11.0952182518       12.5844825704
  C        13.6205370756       10.7214543475       12.3524237234
  C        14.3583276095       11.4370136757       11.3914681701
  C        13.7927834511       12.5181857620       10.7188858649
  C        14.2542841491        9.6247152066       13.1227434853
  C        14.2530899655        9.6446476685       14.5445818751
  C        13.7433449193       10.7536120340       15.2917132265
  C        22.5240598467        3.2505090964        5.7570957612
  C        23.2612195501        4.3583012988        5.0744825822
  C        24.2750606120        4.0793966654        4.1448093781
  C        24.9220340834        5.1180874891        3.4771852573
  C        24.5750628321        6.4637565454        3.7150927149
  C        23.5913229860        6.7343047184        4.6845364883
  C        22.9398650222        5.6970802621        5.3512551205
  C        25.1880839256        7.5685687049        2.9325037085
  C        25.1322015681        7.5609305743        1.5101125837
  C        24.4143693180        6.5620018283        0.7776543826
  C        38.3017524040       31.9262818176        5.8514551477
  C        37.5724594813       30.8303567366        5.1501470849
  C        36.6064832526       31.1221126044        4.1750525720
  C        35.9936481859       30.0933117357        3.4645194762
  C        36.3324301975       28.7471642646        3.7057629565
  C        37.2666320477       28.4628556594        4.7195590458
  C        37.8829725457       29.4901349494        5.4294017605
  C        35.7417805551       27.6486067396        2.9075540555
  C        35.7769940212       27.6664164984        1.4858843342
  C        36.4769263705       28.6758617056        0.7522126711
  C        25.7415969510        8.6294430397        0.7753988050
  C        25.8107606302        8.6410866327        3.5875358419
  C        38.3306056993       31.9604500522       10.1606065602
  C        37.6156807588       30.8862436662       10.9100271476
  C        36.6911609021       31.1930161062       11.9205143444
  C        36.0860703562       30.1739232186       12.6545433419
  C        36.3896579730       28.8208606038       12.4020868045
  C        37.2935443571       28.5242342936       11.3631331824
  C        37.9011534386       29.5396554796       10.6309297800
  C        35.7831900605       27.7181754116       13.1851793988
  C        35.7976922344       27.7026119990       14.6077204537
  C        36.4871503221       28.6929746140       15.3754829746
  C        46.1348675787       26.6201880767       15.2813160354
  C        46.0874783044       26.5795931709       12.4734032611
  C        22.4567706796        3.2572135162       10.2654500765
  C        23.1392751272        4.3654390145       11.0029146003
  C        24.1342110017        4.0790329910       11.9517049901
  C        24.7556468104        5.1077345692       12.6566937711
  C        24.4033594854        6.4547286349       12.4367098859
  C        23.4270566331        6.7339855078       11.4609816713
  C        22.8014147349        5.7056731350       10.7561254109
  C        25.0407679078        7.5548714984       13.2050744200
  C        25.0563690015        7.5534450302       14.6287004374
  C        24.3772013616        6.5588541092       15.4009722641
  C        26.6049364333       17.8933823913        5.7826336292
  C        25.3037508891       17.9436960028        5.0523471446
  C        25.0452428110       18.9356661017        4.0931243775
  C        23.8332587565       18.9505608844        3.4049532397
  C        22.8435797656       17.9783809121        3.6564604815
  C        23.0979691045       17.0107641863        4.6465105263
  C        24.3115975239       16.9891923203        5.3303670810
  C        21.5714233039       17.9563826799        2.8924415634
  C        21.5732294917       17.9268104472        1.4704592956
  C        22.7793931631       17.7987357142        0.7118075232
  C        34.3643957593       17.1812615969        5.8684776840
  C        35.6559520874       17.1156207247        5.1318335693
  C        35.8492738192       16.1894005418        4.0946096095
  C        37.0454996094       16.1752209651        3.3810677932
  C        38.0785266053       17.0871784295        3.6786736747
  C        37.8850975053       17.9900772658        4.7425698680
  C        36.6903919424       18.0086142070        5.4564943349
  C        39.3423834481       17.1102490997        2.9058240241
  C        39.3499793799       17.1572817865        1.4839274689
  C        38.1509063312       17.3068193536        0.7179758168
  C        20.3269848376       17.9395359080        0.7618538700
  C        20.3469815198       17.9565371336        3.5752081911
  C        34.4824255261       17.2459401020       10.1881207642
  C        35.7863947571       17.1768457032       10.9065180537
  C        35.9982883489       16.2053823909       11.8964945459
  C        37.1827481019       16.1966942425       12.6271266176
  C        38.1839504250       17.1577241234       12.3862664710
  C        37.9790432251       18.1026942324       11.3637605951
  C        36.7916890232       18.1179029819       10.6371071705
  C        39.4267216082       17.1843317922       13.1874216973
  C        39.3931770965       17.1947569130       14.6081726484
  C        38.1714941975       17.3220849533       15.3413939022
  C        35.1750546091       26.6156534255       15.3080311235
  C        35.1888044924       26.6516235007       12.4984768950
  C        26.5691209977       17.8305367811       10.3273630290
  C        25.2540932609       17.8801683493       11.0282245704
  C        24.9960139320       18.8783291795       11.9798762766
  C        23.7777306158       18.9047475838       12.6522302477
  C        22.7899902062       17.9322958113       12.3982432296
  C        23.0427341656       16.9595138575       11.4139696141
  C        24.2610176723       16.9314175631       10.7386816339
  C        21.5269967354       17.9121008336       13.1714167354
  C        21.5502816986       17.9020416511       14.5929976476
  C        22.7683390942       17.7859450547       15.3354565615
  C        14.0460887890       17.8295010113       10.2877872466
  C        15.3507029406       17.8879803748       11.0115128955
  C        15.6066807906       18.8916881082       11.9586363288
  C        16.8158694607       18.9134025157       12.6507689957
  C        17.8026109999       17.9343882946       12.4172445533
  C        17.5516527909       16.9552752087       11.4375759435
  C        16.3418153902       16.9288382686       10.7472193660
  C        19.0710985648       17.9176828751       13.1861805812
  C        19.0687564352       17.9140084426       14.6084892789
  C        17.8614527392       17.8133823083       15.3690857484
  C        46.8063351788       17.2235398498       10.1634792210
  C        45.5216755250       17.1743061850       10.9203263634
  C        45.3171979986       16.2063318071       11.9157909641
  C        44.1404493479       16.2006152317       12.6607750254
  C        43.1371227420       17.1624836622       12.4316704977
  C        43.3401918592       18.1118528725       11.4114903946
  C        44.5177251403       18.1220167075       10.6683868259
  C        41.8816814544       17.1790057875       13.2176178273
  C        41.8766033958       17.1744367768       14.6397893041
  C        43.0793278899       17.2636634229       15.4083318550
  C        20.3150430085       17.9270531493       15.3171024546
  C        20.2952427966       17.9001656405       12.5044009736
  C        46.7964521608       17.1995188727        5.8601232398
  C        45.4778089046       17.1015203521        5.1691529669
  C        45.2440869305       16.1101986141        4.2033907716
  C        44.0442640309       16.0861957922        3.4968984005
  C        43.0468684726       17.0520185932        3.7356522422
  C        43.2690646557       18.0096347532        4.7430174795
  C        44.4702633003       18.0388603629        5.4470154550
  C        41.7992368926       17.0860485925        2.9377776887
  C        41.8343594179       17.1268928225        1.5166098362
  C        43.0589542102       17.2401714657        0.7850273903
  C        46.1524746208       26.6366150774        0.7260904581
  C        46.1613247382       26.6556117346        3.5357326747
  C        14.0449349787       17.8319368430        5.7086456507
  C        15.3649958811       17.9079475362        5.0168140434
  C        15.6340469261       18.9230474233        4.0865766157
  C        16.8616771381       18.9629493926        3.4295009917
  C        17.8479109333       17.9871086722        3.6773516110
  C        17.5856936942       17.0009140964        4.6457056664
  C        16.3598616171       16.9602953740        5.3060589025
  C        19.1148578689       17.9658692976        2.9079232873
  C        19.0915941888       17.9378092040        1.4864552094
  C        17.8725054457       17.8237512664        0.7454095952
  C        28.7988420557       14.0871680282       10.3908259877
  C        28.1845725899       12.9108951359       11.0716011136
  C        28.9045343762       12.1694127770       12.0206718574
  C        28.3018010457       11.0972925296       12.6735598959
  C        26.9639573031       10.7419776757       12.4046908741
  C        26.2668061573       11.4620145389       11.4175866939
  C        26.8674638001       12.5341932031       10.7617154313
  C        26.2943759558        9.6683379771       13.1758828541
  C        26.2995947238        9.7006382908       14.5973023121
  C        26.8061355285       10.8197476587       15.3310084851
  C        32.1774619920       21.2443278951       10.1552366038
  C        32.7741299293       22.4075106133       10.8717392331
  C        32.0418032452       23.0617599235       11.8745617762
  C        32.6187153125       24.0980137251       12.6021787221
  C        33.9430721775       24.5065854477       12.3505959098
  C        34.6562975302       23.8702356970       11.3168537640
  C        34.0826043477       22.8292080095       10.5899420089
  C        34.5802048080       25.5750237111       13.1538993273
  C        34.5858919679       25.5332400678       14.5758408149
  C        34.0937714439       24.4075126068       15.3094803758
  C        25.7056561888        8.6230781967       15.3298988143
  C        25.6481142396        8.6146084006       12.5161609632
  C        32.1434629195       21.1640857470        5.8804642156
  C        32.7345176770       22.3170955021        5.1432467854
  C        32.0077388554       22.9632598411        4.1305088051
  C        32.5874895122       23.9966953730        3.3981972376
  C        33.9077398758       24.4158853918        3.6579982201
  C        34.6159982604       23.7823432323        4.6979803529
  C        34.0422120587       22.7428643162        5.4259778287
  C        34.5461528231       25.5022769385        2.8770729890
  C        34.5669207529       25.4966934187        1.4541214165
  C        34.0843581641       24.3902290452        0.6864970284
  C        40.6024187422       17.1392469480        0.7843710793
  C        40.5628710901       17.0926131182        3.5938368152
  C        28.8189679169       14.1750469846        5.7290907805
  C        28.2325224299       13.0132082605        4.9940203179
  C        28.9515385867       12.3254645538        4.0037615048
  C        28.3763148889       11.2390115112        3.3437193108
  C        27.0658386366       10.8099142106        3.6439104035
  C        26.3673501048       11.4871924628        4.6617457255
  C        26.9389026194       12.5713807040        5.3232803602
  C        26.4122840497        9.7043319974        2.8959823623
  C        26.3617826075        9.7179302467        1.4739646708
  C        26.8332884570       10.8294888852        0.7064916467
  C        18.1358229394        3.1809116689       10.3169870593
  C        17.4065751288        4.2782682729       11.0155753367
  C        16.3905450391        3.9999870484       11.9427707952
  C        15.7428207259        5.0400080954       12.6062217318
  C        16.0950603564        6.3836847937       12.3668144447
  C        17.0847691220        6.6531540157       11.4033739912
  C        17.7338427112        5.6157638493       10.7383623656
  C        15.4707516778        7.4913873838       13.1299129139
  C        15.4860022385        7.4906066300       14.5516354630
  C        16.1874224461        6.4968552416       15.3047615114
  C        42.9460279641       31.8595429957       10.0728165075
  C        43.6463664465       30.7718043442       10.8167253778
  C        44.5922843736       31.0929216089       11.8024909231
  C        45.1978901661       30.0872423913       12.5500782112
  C        44.8709933837       28.7342525850       12.3354460859
  C        43.9447707815       28.4201089674       11.3225388702
  C        43.3360566527       29.4253772730       10.5745723155
  C        45.4884001340       27.6548218851       13.1386467722
  C        45.4924714245       27.6804608509       14.5603388396
  C        44.8056033253       28.6887182178       15.3068766739
  C        14.8570811567        8.5630843923       15.2640633761
  C        14.8754587391        8.5631915704       12.4513827746
  C        42.9465103688       31.9618378903        5.8089930444
  C        43.6915847317       30.8856272626        5.0953320385
  C        44.6563890357       31.1913070398        4.1231654642
  C        45.2776969542       30.1715913023        3.4053952629
  C        44.9534880800       28.8213353056        3.6428147994
  C        44.0196981851       28.5238798064        4.6533699607
  C        43.3916850132       29.5407685828        5.3655976828
  C        45.5623467743       27.7237518188        2.8576115332
  C        45.5327505187       27.7169803494        1.4363044331
  C        44.8267791873       28.7073908494        0.6832683013
  C        35.1649824840       26.5969223966        0.7535584125
  C        35.1452773910       26.5658633559        3.5642307903
  C        18.1489688146        3.2468570742        5.7066783141
  C        17.4303447812        4.3437382595        4.9974756739
  C        16.4151151715        4.0523877279        4.0739408512
  C        15.7668581291        5.0829466123        3.3983907276
  C        16.1215741373        6.4281887336        3.6209737274
  C        17.1129564786        6.7116548842        4.5782062893
  C        17.7606046109        5.6828105515        5.2581127613
  C        15.4910885699        7.5238700082        2.8484804902
  C        15.4969717530        7.5073216603        1.4273376437
  C        16.1936129037        6.5055808286        0.6805834735
  H        10.6732221611       12.4661807811        3.9035816795
  H        11.6954277271       10.5514132463        2.6618005378
  H        15.3916608787       11.1672977248        4.7732675669
  H        14.3511971674       13.0699862024        6.0186112403
  H        13.3769993445       11.6312382850        1.2012828823
  H        50.3205372943       22.7463167017        3.9857893144
  H        49.3176230270       24.6207739507        2.6797934536
  H        45.6413386951       24.1619540525        4.8652930995
  H        46.6620634578       22.2913191045        6.1737866965
  H        47.6279664146       23.5748025571        1.2460831505
  H        14.8725389403        8.5878875840        4.6084195835
  H        50.2863832999       22.7017669848       12.0601234503
  H        49.2683577365       24.5743996648       13.3603831273
  H        45.6099443533       24.1085601914       11.1456636648
  H        46.6521801615       22.2533497457        9.8312440435
  H        47.6063820111       23.5508814547       14.7967852826
  H        40.6749918319       17.1614340133       11.4430948563
  H        48.6834354771       14.0971959958        7.8004496540
  H        10.6815932243       12.4666921815       12.0937241610
  H        11.6900746403       10.5247973123       13.2972476961
  H        15.3937320372       11.1591452459       11.2053566630
  H        14.3650249128       13.0875643166        9.9902863532
  H        13.3766181732       11.6222971457       14.7531241432
  H        47.9305120877       14.2182580997        9.7126115201
  H        47.7795710499       14.3582403114        6.4860703788
  H        49.0817954527       18.5525837577       10.8646051360
  H        10.4173895631       14.1337731106        8.0002911085
  H        24.5342037888        3.0405919578        3.9519963159
  H        25.7038101405        4.8944831058        2.7543011508
  H        23.3114548286        7.7675361448        4.8798006419
  H        22.1589393638        5.9038166883        6.0792633220
  H        23.8639100460        5.8055147345        1.3293093265
  H        36.3609315688       32.1625050492        3.9751123896
  H        35.2453189649       30.3235967792        2.7093460960
  H        37.5359561202       27.4268210594        4.9144368440
  H        38.6306184681       29.2779177838        6.1899364268
  H        37.0370278019       29.4271993869        1.3011822431
  H        25.8688282255        8.6247348872        4.6745849690
  H        36.4664271891       32.2368136162       12.1281195847
  H        35.3634384302       30.4195320175       13.4296459611
  H        37.5415567837       27.4844051812       11.1605852032
  H        38.6204434817       29.3133264863        9.8475853281
  H        37.0563038648       29.4568857866       14.8534676696
  H        46.1089698884       26.5870009491       11.3853679606
  H        44.6682464398       35.1161604724        7.8137173738
  H        24.4141083359        3.0410250745       12.1168469721
  H        25.5334350180        4.8760760140       13.3812406424
  H        23.1406965185        7.7683736587       11.2818205815
  H        22.0342897103        5.9211893185       10.0158614259
  H        23.7971194667        5.8008025867       14.8824591718
  H        44.9537139809       34.3906217240        9.6953526660
  H        44.9005600269       34.2065168258        6.4904285021
  H        40.6662343940       33.2096210556       10.8533362828
  H        23.1512349925        1.9583654707        8.0076405062
  H        25.8000056490       19.6964645048        3.9059139001
  H        23.6371315734       19.7253951202        2.6668713777
  H        22.3451939741       16.2516870091        4.8492234816
  H        24.5193073830       16.2281363514        6.0787068848
  H        23.7199848927       17.6788482062        1.2415048372
  H        35.0481780094       15.4949340020        3.8517905033
  H        37.1926343381       15.4483632729        2.5853563946
  H        38.6716736936       18.7033655705        4.9798552557
  H        36.5284534699       18.7216695295        6.2614066490
  H        37.2081527418       17.4398486526        1.2407755418
  H        20.3533458307       18.0015552299        4.6628659545
  H        35.2152966498       15.4759435718       12.0907312078
  H        37.3459079483       15.4420974363       13.3934268391
  H        38.7458073048       18.8510063439       11.1741824632
  H        36.6103052971       18.8676233057        9.8706728723
  H        37.2450607186       17.4651023245       14.7925316959
  H        35.1527546497       26.6864212120       11.4112618750
  H        28.5231465999       21.0723347139        7.9877010242
  H        25.7634094846       19.6229463931       12.1783507877
  H        23.5774822844       19.6826516089       13.3857635490
  H        22.2882440542       16.2019059226       11.2123336180
  H        24.4724055422       16.1678343445        9.9940324582
  H        23.7004886436       17.6569984919       14.7933080261
  H        28.9899318671       21.7210143025        9.7708196895
  H        29.1299331314       21.7640540442        6.6188943333
  H        32.0577362240       18.5693588371       11.0753656089
  H        27.4167370785       19.0834554133        8.0885664502
  H        14.8475069143       19.6499293847       12.1370537686
  H        17.0112928557       19.6975158810       13.3791144499
  H        18.3036625315       16.1918721414       11.2487992714
  H        16.1356180703       16.1597100917       10.0067030594
  H        16.9195236222       17.6955586644       14.8412642963
  H        46.0972418684       15.4709094485       12.0984875631
  H        43.9827113530       15.4406052859       13.4228803705
  H        42.5747898212       18.8636495423       11.2303929429
  H        44.6897575899       18.8694023708        9.8974006259
  H        44.0251435584       17.3819474299       14.8871191653
  H        20.2893793936       17.9315657275       11.4163244388
  H        46.0197864098       15.3737114205        4.0065929746
  H        43.8687213441       15.3180075332        2.7469040680
  H        42.5048739698       18.7596300669        4.9364832965
  H        44.6616385270       18.7987415148        6.2009981501
  H        43.9894369273       17.3395314247        1.3362810525
  H        46.1981469773       26.6822597872        4.6231794621
  H        52.7410454444       21.0625270155        8.1944162552
  H        14.8711333447       19.6744418639        3.8952794814
  H        17.0695128551       19.7530117084        2.7110826828
  H        18.3387952630       16.2411658208        4.8445087809
  H        16.1418905514       16.1860059263        6.0376268083
  H        16.9390046991       17.7137164574        1.2890622130
  H        52.3221638935       21.6732722115        6.2944864486
  H        52.0132693094       21.7021983764        9.4955450364
  H        49.0686615842       18.6062205483        5.2029833558
  H        13.2473961390       19.0162340693        7.9772376237
  H        29.9335550321       12.4488659922       12.2356073821
  H        28.8622719847       10.5235333433       13.4084683615
  H        25.2333990408       11.1990977644       11.2009791899
  H        26.3238874888       13.1123612909       10.0185290944
  H        27.1475819256       11.6924897342       14.7826360289
  H        31.0274661021       22.7296857659       12.0828289824
  H        32.0459798424       24.6030064682       13.3768618558
  H        35.6813911649       24.1752173089       11.1166857387
  H        34.6411816914       22.3121715318        9.8132213926
  H        33.7460133068       23.5365916261       14.7610763415
  H        25.6645949165        8.5892166351       11.4279802774
  H        30.9930919094       22.6323546166        3.9206635744
  H        32.0161647868       24.4961052382        2.6187904483
  H        35.6378677173       24.0928261091        4.9059502696
  H        34.5978137058       22.2336187474        6.2099922761
  H        33.7297341325       23.5056559308        1.2079980563
  H        40.5491944363       17.0303818133        4.6804339440
  H        32.5253608970       14.1278597748        8.3690080460
  H        29.9614408002       12.6519377184        3.7644222002
  H        28.9455549185       10.7065944411        2.5847603065
  H        25.3535832861       11.1756080592        4.9049274321
  H        26.3904434481       13.1036542220        6.0963017421
  H        27.1940534680       11.7108167564        1.2284865349
  H        33.2791777364       14.1380984420        6.4214326450
  H        33.4060175826       14.4454924907        9.6792576830
  H        32.1980038504       18.5078699145        5.1916567795
  H        30.2222366742       14.1824580192        8.1244553865
  H        16.1181966872        2.9635106541       12.1289222364
  H        14.9530964965        4.8206601501       13.3215911938
  H        17.3674252188        7.6860035762       11.2104652365
  H        18.5160596390        5.8183541817       10.0106865979
  H        16.7538548136        5.7394476682       14.7712190296
  H        44.8289242157       32.1399432211       11.9765545770
  H        45.9380183162       30.3408485342       13.3058145790
  H        43.6816316557       27.3781136353       11.1526527030
  H        42.5990914811       29.1901805110        9.8101968347
  H        44.2304916422       29.4366202909       14.7685011413
  H        14.8516834379        8.5464546894       11.3631611833
  H        44.9003051221       32.2339242443        3.9318344057
  H        46.0247765327       30.4127015612        2.6522928160
  H        43.7622904217       27.4842231543        4.8447251580
  H        42.6449645164       29.3180833449        6.1238586029
  H        44.2684460070       29.4704423094        1.2177983367
  H        35.0985373688       26.5771693535        4.6515862203
  H        36.6052361657       35.1337689416        8.1811968065
  H        16.1439715786        3.0128033646        3.9043546107
  H        14.9744988903        4.8560277456        2.6883658314
  H        17.3965040949        7.7471317298        4.7549708933
  H        18.5435476396        5.8933160976        5.9827892511
  H        16.7648991900        5.7552065520        1.2189937363
  H        36.2787511074       34.4822304920        6.2728883583
  H        36.3814573059       34.2089362724        9.5001179904
  H        40.5798650802       33.2029016559        5.1537553603
  H        17.4719560002        1.9470590932        7.9741110942
  H        29.0291024232       19.1367951127       12.5634700182
  H        28.7998629241       18.9429308604        3.8234678425
  H        31.2359846775       15.4812671462       12.5524319098
  H        28.3298475591       17.3390935929       14.9589764808
  H        29.6640764201       15.0328560535       14.8049558627
  H        32.4139528518       17.9502561425        1.0615561527
  H        28.0352486374       18.0321733972        1.9239358056
  H        32.6862663451       17.3740039981       14.3378534046
  H        18.8545334770        0.8689700825       12.3357499428
  H        40.5273671300       35.2290731146        3.9518841106
  H        42.3252703262       34.4197850131        3.5904225287
  H        22.0883509782        0.6920490693       12.3510809629
  H        11.5970870662       18.7123040733       12.3819313550
  H        52.2642312733       18.4335366986        3.6742328013
  H        49.2523498810       16.4804457166        3.5936639974
  H        10.1502803636       15.7983353328       12.2923451371
  H        50.8505452459       17.6909836975        3.9528322281
  H        10.0457890045       17.3945347305       12.0515755796
  H        20.2165138837        0.0026510995       12.0418261448
  H        39.1832461241       36.1243214097        3.6865699821
 Ni        30.5158495862       17.8717689614        2.5804550445
 Ni        31.2378668603       16.2855425374        0.0854621268
 Ni        29.5077567175       18.8894930826        0.0869906463
 Ni        30.3919497553       17.4067329069       13.5687774811
  O        10.6504098137       14.3647514204        5.4854217807
  O        12.6132604444       14.6572929354        6.5837869341
  O        49.1472664067       16.8421771776        7.9862224785
  O        50.3491909510       20.9362771682        5.6486133170
  O        48.3473048090       20.5912801653        6.6655712036
  O        11.0524429400       17.0529649708        6.5003223441
  O        50.3207732018       20.8813022301       10.4065912049
  O        48.3465416938       20.5860375689        9.3264332914
  O        49.5437998225       18.2478902021       10.0669323164
  O        12.3588894970       18.6245547513        7.9996412746
  O        48.6934458079       14.1490314745        6.7514220733
  O         8.2094053001       14.2103497450        9.3223662082
  O        10.7352710102       14.5067445476       10.6642460073
  O        12.5718003751       14.5828116409        9.3285229050
  O        22.8466749444        2.0473036195        5.4857376467
  O        21.6095181006        3.5956909378        6.5866249712
  O        42.0582673282       34.1377249256        7.9785410925
  O        37.9813642336       33.1339807560        5.5719526539
  O        39.2196518452       31.5764156608        6.6678571650
  O        20.3087048422        1.0402545081        6.5022311956
  O        38.0242795140       33.1846513187       10.4159836590
  O        39.2185710011       31.5832092181        9.3273760372
  O        40.6523552978       33.7695020015       10.0601441556
  O        18.2565501773        1.3757375339        7.9967403579
  O        44.6221917832       35.1006506826        6.7585882476
  O        24.2053270867        0.0001650304        9.3207333239
  O        22.7532038925        2.0584031222       10.5849766442
  O        21.6255185257        3.5976085317        9.3456589221
  O        27.5024339369       18.7631058795        5.4884551376
  O        26.7322612013       16.9874063724        6.6695488410
  O        30.6937671535       19.3428085147        8.0770584646
  O        33.4541330781       16.3198233169        5.5709163783
  O        34.2333363851       18.1004707942        6.7411002103
  O        29.5776158766       17.0609298819        6.5922503683
  O        33.6239637615       16.3310549941       10.4178494426
  O        34.3071376967       18.2470467648        9.4103747512
  O        31.6549487031       18.3108941053       10.2288269342
  O        30.3246072087       15.1483859725        8.1527821050
  O        28.5594636690       21.0293584364        6.9063403954
  O        28.5192123435       20.9492914034        9.4126820453
  O        27.4583973290       18.6792976469       10.6615911906
  O        26.6940751567       16.9310966776        9.4150961001
  O        13.1481224161       18.6931693941       10.5870887896
  O        13.9190477642       16.9162277681        9.4047289673
  O        50.5959162723       19.3492907364        8.0192500308
  O        47.6820429065       16.3280426262       10.4179716931
  O        46.9517495501       18.1765276471        9.3244757186
  O        11.0693429544       17.0156624536        9.4894754335
  O        47.6881687445       16.3208576617        5.5756289214
  O        46.9561069137       18.1755509328        6.6642861617
  O        49.5707195759       18.3170808695        5.9808874457
  O        10.3189147027       15.0995149041        7.9968852904
  O        52.6707073099       21.0279058698        9.2416746361
  O        12.1466129676       20.8910393830        6.6730823819
  O        13.1075561681       18.6138589463        5.3257077955
  O        13.9568790546       16.9870838160        6.6650717267
  O        29.9827035822       14.4381085140       10.7391637155
  O        28.0869403062       14.6542498411        9.4907714601
  O        32.1406173854       16.8492349979        8.1536529072
  O        30.9651317048       20.9506777961       10.4119936833
  O        32.9458485588       20.6054318047        9.3443919754
  O        29.5697096556       17.0762335564        9.5811056521
  O        30.9158129370       20.8777824748        5.6630166995
  O        32.9180812093       20.5129823080        6.6636958351
  O        31.6394874657       18.1779582377        5.9130556625
  O        28.2992041690       18.6780276261        8.0807355354
  O        32.4959969642       14.2121316927        9.4117405658
  O        32.4064119485       14.2093973750        6.8409002373
  O        29.9941284194       14.5888659195        5.4126997264
  O        28.0952822799       14.6582165034        6.6708987533
  O        17.8893400693        1.9666352805       10.6626803683
  O        18.9565348173        3.5270930916        9.4077115914
  O        39.1686449155       34.1387346227        7.9972278046
  O        43.2802273708       33.0590138500       10.3316732423
  O        42.0345593253       31.5064839874        9.2416473980
  O        20.3181658436        1.0374593438        9.4795874414
  O        43.2761593080       33.1828469974        5.5749226379
  O        42.0053275708       31.5842074309        6.5829532903
  O        40.5793184566       33.7757015389        5.9358033275
  O        22.3678206041        1.3855354379        7.9975893280
  O        36.6729505709       35.0996765840        9.2335603966
  O        16.4458530886        0.0639990148        6.6680294910
  O        17.9365425531        2.0433533497        5.3265061584
  O        18.9196422721        3.5930949870        6.6659475152
  O        29.7341812850       18.8291042783        4.0798974449
  O        29.8179472292       18.8321713807       12.0753428474
  O        31.3507629097       16.3334536165       12.0855463990
  O        32.0068595893       17.2183224623        1.5697220569
  O        28.8597958885       17.7370873732        1.4996081654
  O        30.4621268479       15.5367168540       14.5741800761
  O        31.9122738858       17.7184955452       14.8211880075
  O        28.8028831534       18.1000647815       14.5693711062
  O        39.4565882299       35.2437209751        4.0020262738
  O        19.1427971526        0.0049130705       11.9903460361
  O        41.9697559340       35.1729322448        4.0873285848
  O        21.6914734683       -0.0693396420       11.8957697600
  O        51.3650876653       18.6144473336        4.0052195808
  O        10.7511496026       18.7471784825       11.9046866564
  O        50.0839827198       16.4130555771        4.0887260524
  O         9.5242456358       16.4830773877       11.9909417063
 Zr         9.2994403864       16.0498258231        6.1770154307
 Zr        49.8365170906       16.0063477439        9.7452009320
 Zr        22.0733748349        0.0312369052        6.1883532276
 Zr        42.4609191882       35.1536385397        9.8004324743
 Zr        29.6147950264       19.0938557408        6.2884878744
 Zr        29.5812383465       19.1614862361        9.9444427982
 Zr        11.0377186365       19.0525810155        9.8275293119
 Zr        11.0446935375       19.1539695797        6.2496679603
 Zr        31.3257036687       16.1062931049        9.9892563321
 Zr        31.4190233254       16.0203819066        6.4537162303
 Zr        18.6014961655       -0.0014070212        9.7635573613
 Zr        18.5065534894       -0.0082985037        6.2139525463
 Zr        12.3018352506       16.3236163941        7.9904132996
 Zr        48.6181136332       18.8283813185        8.0070716949
 Zr        20.3170898055        2.4748406785        7.9897907093
 Zr        40.6434203401       32.6869369910        7.9784164885
 Zr        28.3357293945       16.3613901340        8.0890690829
 Zr        32.6386665559       18.8483129060        8.1009702865
  H        30.1465347830       19.8934098987       -0.7564712684
  H        30.6826696331       15.2837546543        0.9785976940
