     573
 i =      171, E =     -4762.7911818129
  C        11.8596088785       14.0529788856        5.7415664331
  C        12.4568284416       12.8900648207        5.0234163077
  C        11.7053624573       12.1718173651        4.0810446430
  C        12.2817480376       11.1097196550        3.3885926038
  C        13.6220926214       10.7394324582        3.6168748783
  C        14.3549828761       11.4423059058        4.5910793667
  C        13.7820941149       12.5071335842        5.2827569782
  C        14.2616287796        9.6489217659        2.8433691031
  C        14.2569311101        9.6569962042        1.4216761233
  C        13.7439227688       10.7592339993        0.6678230953
  C        49.1257098846       21.2321542249        5.8793862788
  C        48.5486601068       22.4000974425        5.1526798329
  C        49.2983437413       23.0666770022        4.1708542195
  C        48.7315206921       24.1058481516        3.4376782583
  C        47.4013519422       24.5084136925        3.6670075420
  C        46.6708505840       23.8604581734        4.6814631434
  C        47.2332267466       22.8155266863        5.4108582340
  C        46.7712658455       25.5861436368        2.8696589677
  C        46.7603798843       25.5565083179        1.4478706136
  C        47.2600734982       24.4413209793        0.7043387459
  C        14.8607649011        8.5706393374        0.7083570194
  C        14.8923108548        8.5968842665        3.5199542511
  C        49.1127298564       21.2027177673       10.1445589468
  C        48.5274666844       22.3641539637       10.8720293198
  C        49.2665743356       23.0247479433       11.8651116448
  C        48.6902242223       24.0592492607       12.5966906188
  C        47.3598641892       24.4561708702       12.3584128000
  C        46.6395138044       23.8113593753       11.3347765513
  C        47.2131144417       22.7755012553       10.6029414214
  C        46.7214119925       25.5311713951       13.1494530697
  C        46.7329537372       25.5274798790       14.5711635960
  C        47.2480212996       24.4281169822       15.3275710732
  C        40.6333529281       17.1645790936       15.3240895205
  C        40.6550128300       17.1867298603       12.5153986173
  C        11.8829875575       14.0865219539       10.2855290977
  C        12.4722872101       12.9107847626       10.9897987816
  C        11.7148830097       12.1777197180       11.9161046737
  C        12.2814972226       11.0952328601       12.5844352230
  C        13.6202272141       10.7213592150       12.3523221509
  C        14.3580647088       11.4367569091       11.3912912437
  C        13.7926219823       12.5179692311       10.7187108444
  C        14.2538584665        9.6245888345       13.1226291262
  C        14.2528519506        9.6446555740       14.5444548278
  C        13.7432312752       10.7536916274       15.2915688580
  C        22.5110465399        3.2451808109        5.7529664643
  C        23.2229481516        4.3525356587        5.0532453759
  C        24.2176870979        4.0761775853        4.1037070921
  C        24.8407872973        5.1183369051        3.4218526024
  C        24.4848273371        6.4590725579        3.6693866805
  C        23.5185377019        6.7269299655        4.6560561340
  C        22.8907867748        5.6866319844        5.3361772210
  C        25.0854331006        7.5681577294        2.8933018539
  C        25.0535472305        7.5623612163        1.4717762301
  C        24.3507439567        6.5626119717        0.7267755223
  C        38.3027789993       31.9295772925        5.8493303617
  C        37.5742022080       30.8393555727        5.1407136003
  C        36.6163187271       31.1410161541        4.1606510729
  C        36.0014450884       30.1189775019        3.4428774922
  C        36.3296769003       28.7704868153        3.6839748471
  C        37.2572977726       28.4764121654        4.7009820725
  C        37.8764504532       29.4970313265        5.4173762976
  C        35.7309204598       27.6767929330        2.8870879757
  C        35.7651578303       27.6897976071        1.4658997409
  C        36.4704468753       28.6926508180        0.7288068642
  C        25.6728469824        8.6335868270        0.7506396042
  C        25.6823860070        8.6439627161        3.5629514996
  C        38.3287275623       31.9615798225       10.1567193276
  C        37.6080932343       30.8879475006       10.8988451377
  C        36.6823878069       31.1954113356       11.9077555392
  C        36.0741082955       30.1760654560       12.6378021512
  C        36.3768449877       28.8234902848       12.3825154676
  C        37.2796996355       28.5261621712       11.3431903650
  C        37.8903439127       29.5418897009       10.6146070511
  C        35.7714715488       27.7228982787       13.1669806581
  C        35.7857148765       27.7136602050       14.5890348508
  C        36.4799659164       28.7043203972       15.3520488859
  C        46.1350579869       26.6201751898       15.2813084694
  C        46.0876350469       26.5796597955       12.4734040298
  C        22.4591188273        3.2558880751       10.2578088165
  C        23.1489082280        4.3664272324       10.9817355259
  C        24.1479230437        4.0839242288       11.9267012677
  C        24.7710524710        5.1167485657       12.6230196759
  C        24.4153234815        6.4614019134       12.3963538910
  C        23.4394036376        6.7371261708       11.4200074024
  C        22.8113883963        5.7045789071       10.7245762301
  C        25.0416400354        7.5622017296       13.1699632419
  C        25.0314387703        7.5587037384       14.5926713938
  C        24.3381466735        6.5621857443       15.3498907438
  C        26.6187647741       17.8563868775        5.7813392836
  C        25.3150160053       17.8961894846        5.0531789339
  C        25.0467884388       18.8966985357        4.1048655793
  C        23.8344046500       18.9099646621        3.4177712481
  C        22.8516360247       17.9282937872        3.6592547349
  C        23.1153844321       16.9510767707        4.6376472524
  C        24.3305615949       16.9305152081        5.3204364012
  C        21.5776733383       17.9117732472        2.8963057710
  C        21.5784402492       17.8929220915        1.4738758856
  C        22.7840034111       17.7705998101        0.7131392702
  C        34.4424729914       17.1964798168        5.9218973591
  C        35.7344778122       17.1466291306        5.1808313577
  C        35.9394485662       16.1854800980        4.1783418178
  C        37.1177998639       16.1837384174        3.4375249567
  C        38.1233828572       17.1390532755        3.6825130550
  C        37.9218708789       18.0784664329        4.7116839445
  C        36.7399320753       18.0883165940        5.4475998514
  C        39.3771988788       17.1560819716        2.8966244346
  C        39.3734510343       17.1781935785        1.4752385976
  C        38.1673388330       17.3053867508        0.7167511733
  C        20.3318178101       17.9130873468        0.7656194567
  C        20.3532617819       17.9141392667        3.5793741988
  C        34.4798339197       17.2477297579       10.1819198798
  C        35.7815460871       17.1785973220       10.9043676597
  C        35.9939211140       16.2024786469       11.8893264417
  C        37.1785851293       16.1906909178       12.6194755508
  C        38.1783811446       17.1536934479       12.3823982142
  C        37.9724592693       18.1044190857       11.3656382921
  C        36.7851571126       18.1222611635       10.6393400814
  C        39.4236495350       17.1771220854       13.1790245967
  C        39.3973848978       17.1899967777       14.5997702709
  C        38.1787460668       17.3100312493       15.3397994089
  C        35.1586756149       26.6323492999       15.2931593129
  C        35.1789947166       26.6534598624       12.4840177833
  C        26.5703962961       17.8281547545       10.3228248629
  C        25.2550183963       17.8735125494       11.0265739901
  C        24.9924917496       18.8744679971       11.9740815207
  C        23.7751494084       18.8975550690       12.6487411995
  C        22.7915960416       17.9195876196       12.3997012943
  C        23.0483977660       16.9437361658       11.4195944239
  C        24.2664216000       16.9184499015       10.7431607099
  C        21.5286899865       17.8981302447       13.1737952776
  C        21.5530103250       17.8842711380       14.5953567615
  C        22.7716611354       17.7663155850       15.3366165701
  C        14.0464418400       17.8287189098       10.2889214772
  C        15.3509204881       17.8848614767       11.0142479806
  C        15.6079749777       18.8864534359       11.9634041610
  C        16.8170996806       18.9056678987       12.6561832500
  C        17.8032648842       17.9262003156       12.4216487345
  C        17.5510361879       16.9490100640       11.4402583900
  C        16.3413464643       16.9250669455       10.7493070375
  C        19.0724898949       17.9068427914       13.1902707784
  C        19.0715387619       17.8996384166       14.6126762129
  C        17.8646027130       17.7997478465       15.3738970301
  C        46.8064712015       17.2212607400       10.1598248954
  C        45.5188899973       17.1673478042       10.9091782527
  C        45.3126385762       16.1978255804       11.9025337176
  C        44.1329476073       16.1901379703       12.6419842613
  C        43.1305455863       17.1516836815       12.4086082639
  C        43.3344004733       18.1011115062       11.3892951851
  C        44.5148532056       18.1131705360       10.6515670169
  C        41.8776700352       17.1714697543       13.1961335861
  C        41.8811741740       17.1752046577       14.6176278209
  C        43.0890682944       17.2710707149       15.3775523876
  C        20.3184708780       17.9077309294       15.3206131156
  C        20.2964155720       17.8891048976       12.5076259939
  C        46.8030123096       17.2016956429        5.8573550243
  C        45.4921510619       17.1141237647        5.1559612184
  C        45.2618655109       16.1282588683        4.1844605856
  C        44.0677048006       16.1152519115        3.4695945574
  C        43.0766149553       17.0870827334        3.7074513062
  C        43.2963391946       18.0410485208        4.7183327990
  C        44.4914203568       18.0591157391        5.4306764026
  C        41.8300979025       17.1247260776        2.9132690192
  C        41.8570066718       17.1506870244        1.4927197967
  C        43.0775436817       17.2576857567        0.7541059530
  C        46.1526705510       26.6365475634        0.7260816951
  C        46.1614948113       26.6554329163        3.5357297930
  C        14.0455587245       17.8300522297        5.7079745398
  C        15.3664593086       17.8996911738        5.0161106664
  C        15.6441469359       18.9139739749        4.0876144148
  C        16.8735996441       18.9464593227        3.4331386948
  C        17.8530577982       17.9635821304        3.6809930102
  C        17.5820123861       16.9777879515        4.6472183272
  C        16.3547797493       16.9449924276        5.3054295088
  C        19.1206993022       17.9347766107        2.9124363737
  C        19.0968846333       17.9124388321        1.4908468591
  C        17.8768677593       17.8054706629        0.7501434191
  C        28.8048711916       14.0908594301       10.3883627643
  C        28.1873915364       12.9200597182       11.0754213785
  C        28.9026168186       12.1852393959       12.0326551032
  C        28.2981653568       11.1135886629       12.6846657952
  C        26.9644527907       10.7533497820       12.4041472759
  C        26.2715223394       11.4684235655       11.4108915688
  C        26.8736180443       12.5402723926       10.7569433577
  C        26.2910623795        9.6765514417       13.1655033082
  C        26.2744086683        9.7063026643       14.5864347605
  C        26.7728916147       10.8222575770       15.3307547146
  C        32.1784041611       21.2410906868       10.1491428609
  C        32.7734443410       22.4057596408       10.8655902808
  C        32.0334375785       23.0705511022       11.8554762708
  C        32.6069589881       24.1086246099       12.5829259243
  C        33.9357185190       24.5085725327       12.3427094866
  C        34.6574296768       23.8620421294       11.3214479085
  C        34.0867144924       22.8189807069       10.5951039143
  C        34.5684701415       25.5810032318       13.1435454232
  C        34.5676993001       25.5480301527       14.5653892997
  C        34.0670972123       24.4290777436       15.3033472790
  C        25.6663313829        8.6281427128       15.3060069707
  C        25.6574833252        8.6235167099       12.4928989978
  C        32.1077854785       21.2300500172        5.8906304324
  C        32.6997069562       22.3813634553        5.1510099545
  C        31.9737194785       23.0211688881        4.1342731883
  C        32.5563800278       24.0473702454        3.3945520282
  C        33.8779492179       24.4624702150        3.6517540308
  C        34.5854115196       23.8354373836        4.6958662853
  C        34.0083762392       22.8038882057        5.4316442558
  C        34.5207021465       25.5400272574        2.8647954185
  C        34.5423637596       25.5271969707        1.4425431614
  C        34.0540652143       24.4195772627        0.6802972856
  C        40.6207963222       17.1553667223        0.7681097506
  C        40.5995067212       17.1464276923        3.5778778546
  C        28.7190385712       14.1029229842        5.7828023478
  C        28.1111638241       12.9538322776        5.0504975951
  C        28.8451085156       12.2497022852        4.0835497485
  C        28.2635492797       11.1870980362        3.3964622902
  C        26.9322299881       10.8013333388        3.6513766263
  C        26.2162768330       11.4910008060        4.6478378321
  C        26.7961209689       12.5538755418        5.3370394708
  C        26.2894482776        9.7081309104        2.8836787905
  C        26.2758119989        9.7223000235        1.4620002139
  C        26.7716012357       10.8312962499        0.7067039044
  C        18.1353532564        3.1808272478       10.3171246168
  C        17.4059694903        4.2781328188       11.0156615979
  C        16.3899376395        3.9998058981       11.9428167839
  C        15.7421785067        5.0398309537       12.6062280291
  C        16.0944231774        6.3834848771       12.3667736431
  C        17.0841004795        6.6529921240       11.4033295490
  C        17.7332047007        5.6156063991       10.7383669036
  C        15.4701711724        7.4912147507       13.1298159865
  C        15.4856511492        7.4905694492       14.5515170011
  C        16.1871450502        6.4968445230       15.3046037618
  C        42.9459424379       31.8594698581       10.0728712512
  C        43.6463034263       30.7717388039       10.8168061343
  C        44.5922262562       31.0928972598       11.8025533782
  C        45.1978899481       30.0872432795       12.5501303819
  C        44.8710502258       28.7342439379       12.3354922768
  C        43.9447990204       28.4200673324       11.3226294340
  C        43.3360166758       29.4253078184       10.5746822996
  C        45.4885095421       27.6548375020       13.1386813622
  C        45.4925900540       27.6804382638       14.5603769086
  C        44.8056371562       28.6886104041       15.3069533481
  C        14.8568533277        8.5631112533       15.2639381471
  C        14.8748860061        8.5629920815       12.4512729927
  C        42.9463983356       31.9615219664        5.8089105036
  C        43.6914743218       30.8853135265        5.0952802338
  C        44.6563736044       31.1910345253        4.1232199227
  C        45.2777444461       30.1713300499        3.4054937902
  C        44.9535008912       28.8210752553        3.6428587529
  C        44.0195939813       28.5235922185        4.6532903297
  C        43.3914925167       29.5404650138        5.3654698970
  C        45.5624309827       27.7235372507        2.8576494196
  C        45.5328557585       27.7168267987        1.4363419065
  C        44.8268040612       28.7072139721        0.6833486174
  C        35.1471158825       26.6207787672        0.7382000500
  C        35.1263181768       26.6017966939        3.5477773342
  C        18.1485989724        3.2468635641        5.7065567469
  C        17.4301147446        4.3437291773        4.9971184673
  C        16.4148298395        4.0524480124        4.0736605005
  C        15.7666245111        5.0830706975        3.3981458152
  C        16.1215058113        6.4282573790        3.6207121695
  C        17.1129754929        6.7116690684        4.5778584183
  C        17.7605225369        5.6827593838        5.2577367370
  C        15.4910790246        7.5239903758        2.8482946666
  C        15.4969126549        7.5074402139        1.4271672415
  C        16.1934971452        6.5056557096        0.6804174540
  H        10.6734709545       12.4664248754        3.9034521769
  H        11.6956671795       10.5516977058        2.6615381520
  H        15.3918135581       11.1672375556        4.7732325517
  H        14.3513286242       13.0698788200        6.0187410363
  H        13.3771071753       11.6314397488        1.2011312285
  H        50.3207316599       22.7459898972        3.9854822806
  H        49.3178226172       24.6204902240        2.6795379086
  H        45.6417365417       24.1620352213        4.8654299384
  H        46.6624688133       22.2914304267        6.1739095399
  H        47.6282453914       23.5747514682        1.2459550796
  H        14.8725904978        8.5879819701        4.6082586926
  H        50.2866188400       22.7019141110       12.0600482045
  H        49.2686028310       24.5745863818       13.3602887081
  H        45.6101385121       24.1086672758       11.1456479114
  H        46.6523385251       22.2534417243        9.8312856967
  H        47.6066668636       23.5509441522       14.7966655971
  H        40.6620911418       17.1499285332       11.4277574127
  H        48.6836748076       14.0968158152        7.8005949663
  H        10.6814815937       12.4669109400       12.0937041850
  H        11.6898008456       10.5249095096       13.2972670129
  H        15.3934239696       11.1587230040       11.2051765280
  H        14.3648847998       13.0872851160        9.9900807750
  H        13.3764859427       11.6223647735       14.7529713216
  H        47.9306014715       14.2183111006        9.7125865069
  H        47.7798311026       14.3583915627        6.4864135296
  H        49.0815487053       18.5524520508       10.8645437817
  H        10.4176205272       14.1336858928        8.0004665392
  H        24.4801401527        3.0384469266        3.9101637804
  H        25.6121235456        4.9037328020        2.6853604106
  H        23.2360399709        7.7589158073        4.8535768885
  H        22.1222509712        5.8840018581        6.0794890146
  H        23.7906490773        5.8056317312        1.2679770032
  H        36.3788905510       32.1837361712        3.9634333867
  H        35.2584443394       30.3558260169        2.6845131531
  H        37.5177372860       27.4377863437        4.8939795412
  H        38.6186812707       29.2782358549        6.1813384798
  H        37.0350139453       29.4427611998        1.2749122961
  H        25.7210606540        8.6260779817        4.6506511426
  H        36.4604866819       32.2393772864       12.1173560217
  H        35.3510148426       30.4203283141       13.4128472656
  H        37.5252304498       27.4861018460       11.1389218693
  H        38.6100615946       29.3167608109        9.8313706063
  H        37.0529238231       29.4629347120       14.8266289858
  H        46.1090800441       26.5870945158       11.3853687743
  H        44.6681446205       35.1161630867        7.8139644224
  H        24.4268037151        3.0465084509       12.0970394011
  H        25.5495268834        4.8910494562       13.3486866895
  H        23.1532941312        7.7707609042       11.2363339187
  H        22.0418679962        5.9141321578        9.9852029023
  H        23.7676741730        5.8054255824       14.8192024606
  H        44.9536103043       34.3903016871        9.6951614710
  H        44.9013807378       34.2066823265        6.4906317217
  H        40.6656055303       33.2086639595       10.8529598777
  H        23.1502070395        1.9579488263        8.0052536571
  H        25.7948658849       19.6659145108        3.9258186194
  H        23.6319698189       19.6916988188        2.6886898684
  H        22.3684108863       16.1844106300        4.8333448536
  H        24.5442355113       16.1623340975        6.0599916914
  H        23.7251834165       17.6491351549        1.2414719253
  H        35.1593590831       15.4519669045        3.9884055482
  H        37.2760940369       15.4329726627        2.6664295420
  H        38.6911277787       18.8234005171        4.9044018204
  H        36.5661248918       18.8295136652        6.2242447109
  H        37.2274599758       17.4307332870        1.2467959896
  H        20.3601807607       17.9531152479        4.6672899219
  H        35.2117258933       15.4709423074       12.0785337027
  H        37.3436642561       15.4318094228       13.3811217443
  H        38.7389714035       18.8539170200       11.1798716118
  H        36.6023939563       18.8747094674        9.8758975095
  H        37.2477123405       17.4387092796       14.7951650028
  H        35.1456608601       26.6825362352       11.3965589051
  H        28.5155878995       21.0825137086        7.9790139683
  H        25.7556398850       19.6252228613       12.1660079472
  H        23.5716972811       19.6776150320       13.3791802372
  H        22.2973154391       16.1816898435       11.2218750965
  H        24.4812437516       16.1524627938       10.0018924159
  H        23.7031871786       17.6421310144       14.7923432673
  H        28.9999943087       21.7198480693        9.7670697335
  H        29.1327723437       21.7575978973        6.6082849607
  H        32.0943283689       18.5616399568       10.9972067648
  H        27.4112556980       19.0788394512        8.0851866840
  H        14.8497974245       19.6454454972       12.1429882372
  H        17.0127544359       19.6885574158       13.3858055141
  H        18.3020841929       16.1849591563       11.2502273544
  H        16.1348927726       16.1572581882       10.0074824542
  H        16.9219422598       17.6862095906       14.8464265896
  H        46.0936547034       15.4641857879       12.0880175903
  H        43.9724631420       15.4307651246       13.4041107091
  H        42.5682450124       18.8515710636       11.2059890095
  H        44.6898019693       18.8605575791        9.8813140667
  H        44.0311656072       17.3870170845       14.8493272187
  H        20.2899976798       17.9224657667       11.4196048010
  H        46.0347041175       15.3877205873        3.9920247929
  H        43.8901405342       15.3510037281        2.7161474440
  H        42.5349188736       18.7947121500        4.9080691288
  H        44.6843182143       18.8141794123        6.1889070844
  H        44.0109562165       17.3625440221        1.2994092325
  H        46.1982692965       26.6820372860        4.6231749282
  H        52.7410516227       21.0624469917        8.1944403569
  H        14.8868160797       19.6708670255        3.8955264950
  H        17.0879615281       19.7361943156        2.7162714549
  H        18.3291216391       16.2121933615        4.8462567277
  H        16.1304090473       16.1712068776        6.0355552819
  H        16.9434611596       17.6964187779        1.2941491170
  H        52.3219933545       21.6730320267        6.2943433187
  H        52.0130719174       21.7020154516        9.4955071644
  H        49.0700399953       18.6070553633        5.2025388836
  H        13.2476661330       19.0160098147        7.9772227522
  H        29.9294387071       12.4687425258       12.2527551828
  H        28.8542007545       10.5428294105       13.4252454654
  H        25.2410378856       11.2002686600       11.1870386418
  H        26.3359076773       13.1143701734       10.0064066455
  H        27.1312808150       11.6926690618       14.7895374116
  H        31.0146991091       22.7458709633       12.0528463381
  H        32.0285090287       24.6223154997       13.3475897608
  H        35.6860189130       24.1612518302       11.1307472748
  H        34.6505260164       22.2937742130        9.8276695727
  H        33.7159376618       23.5574492366       14.7582567561
  H        25.6907698424        8.6012304555       11.4050514512
  H        30.9587208179       22.6892380825        3.9274098303
  H        31.9873065494       24.5436006693        2.6114961817
  H        35.6083960501       24.1445713267        4.9001808350
  H        34.5611614093       22.2971167918        6.2192561465
  H        33.6924275995       23.5405795303        1.2063691233
  H        40.5916232154       17.0995087261        4.6651715891
  H        32.5250367156       14.1284678014        8.3451167434
  H        29.8752481184       12.5403033893        3.8904063985
  H        28.8404082766       10.6377622210        2.6556332685
  H        25.1864571752       11.2051898737        4.8520434940
  H        26.2402665238       13.1011055963        6.0946898293
  H        27.1276248717       11.7092703186        1.2378145297
  H        33.2799124659       14.1621619796        6.4221860180
  H        33.4080855344       14.4396678385        9.6646798746
  H        32.2315544956       18.5903939286        5.1992290082
  H        30.2236845245       14.1873074072        8.0691427738
  H        16.1176698001        2.9633132129       12.1290037832
  H        14.9524727389        4.8205079791       13.3216249254
  H        17.3667414797        7.6858494092       11.2104374226
  H        18.5154567520        5.8181328694       10.0107177055
  H        16.7534715966        5.7393903858       14.7710196768
  H        44.8288443738       32.1399310302       11.9765771474
  H        45.9380271357       30.3408642862       13.3058546642
  H        43.6816570456       27.3780721195       11.1527573231
  H        42.5990263781       29.1900860961        9.8103412725
  H        44.2304448300       29.4364622743       14.7685896177
  H        14.8509628828        8.5461563123       11.3630590967
  H        44.9003050697       32.2336622440        3.9319664357
  H        46.0248873107       30.4124444984        2.6524562259
  H        43.7621244112       27.4839383561        4.8445696150
  H        42.6446694909       29.3177705066        6.1236273589
  H        44.2683777848       29.4701810930        1.2179007048
  H        35.0791924295       26.6176438930        4.6349970046
  H        36.6049870004       35.1338640231        8.1807134901
  H        16.1436042361        3.0128727856        3.9041309599
  H        14.9742060407        4.8562419105        2.6881565976
  H        17.3966029759        7.7471326410        4.7545777969
  H        18.5434535247        5.8931267599        5.9824648303
  H        16.7647919987        5.7552891744        1.2188314091
  H        36.2782946850       34.4825616772        6.2731482243
  H        36.3803680392       34.2093606146        9.5000347171
  H        40.5799820371       33.2022290473        5.1537758204
  H        17.4705451586        1.9469001297        7.9740762374
  H        29.0724762451       19.3130377623       12.5823037013
  H        28.7316784787       19.0146812497        3.8752928782
  H        31.9052632077       16.2468177515        3.1982332548
  H        31.2232687106       15.4881342571       12.4771175404
  H        28.2793909519       17.6435030669       14.8831143735
  H        29.6034360037       15.0899797881       14.7256026390
  H        32.5802069528       17.8232982103        1.2439161975
  H        28.1654909728       17.7380284424        2.0424017155
  H        32.5695032161       17.1962794768       14.1695927636
  H        18.8530593883        0.8687633098       12.3353079603
  H        40.5278403252       35.2291244298        3.9521114254
  H        42.3239454515       34.4187431436        3.5907933024
  H        22.0877809077        0.6920478613       12.3515421423
  H        11.5969929848       18.7125164124       12.3821022457
  H        52.2642701728       18.4338079118        3.6738791317
  H        49.2525296475       16.4804886216        3.5939051748
  H        10.1503403523       15.7983807510       12.2925080725
  H        50.8507063127       17.6906864083        3.9529273268
  H        10.0457504744       17.3945145924       12.0516298420
  H        20.2142074624        0.0020753174       12.0420906751
  H        39.1835494386       36.1243852708        3.6863905606
 Ni        30.6029650904       18.2088504213        2.6623880848
 Ni        31.1552993636       16.3324425942        0.0782266818
 Ni        29.7972720161       18.6249206329        0.3355737099
 Ni        30.2733570596       17.4276300080       13.3288079419
  O        10.6505864184       14.3646337979        5.4854251745
  O        12.6133519098       14.6573139768        6.5838231262
  O        49.1476697619       16.8421771842        7.9864002243
  O        50.3493958736       20.9359571686        5.6485464912
  O        48.3473955702       20.5913299773        6.6655549816
  O        11.0529468502       17.0528957752        6.5002746798
  O        50.3209056172       20.8813276127       10.4065745798
  O        48.3466187642       20.5860777132        9.3265144230
  O        49.5438808199       18.2479221202       10.0670037838
  O        12.3590521579       18.6246004801        7.9996994706
  O        48.6936284685       14.1487231119        6.7515809933
  O         8.2094961686       14.2102677933        9.3223635710
  O        10.7353335638       14.5067549881       10.6642501039
  O        12.5718470072       14.5828021071        9.3285223440
  O        22.8450145506        2.0444585137        5.4870116197
  O        21.6050358623        3.5922969504        6.5901683225
  O        42.0581534173       34.1373339018        7.9789620060
  O        37.9818617740       33.1379125817        5.5725524580
  O        39.2184911745       31.5765551328        6.6669863761
  O        20.3083892118        1.0395067479        6.5019055328
  O        38.0246235069       33.1855718046       10.4152655378
  O        39.2191141881       31.5837619678        9.3264757398
  O        40.6522902574       33.7692752267       10.0602759302
  O        18.2554037166        1.3759747762        7.9968072854
  O        44.6222010855       35.1005560299        6.7587379846
  O        24.2053679768        0.0000566469        9.3208289745
  O        22.7528968725        2.0583041179       10.5839957612
  O        21.6239498906        3.5956622407        9.3416959746
  O        27.4959409230       18.7510227210        5.4937857626
  O        26.7650468386       16.9354764323        6.6542176421
  O        30.6822391662       19.3574266961        8.0685420484
  O        33.5842470324       16.2798080969        5.6640040054
  O        34.2731422614       18.1688057858        6.7351909202
  O        29.5876389745       17.0648885461        6.5754110888
  O        33.6220874118       16.3307132277       10.4107901961
  O        34.3056025222       18.2483487549        9.4059061679
  O        31.6551688636       18.3118189292       10.1661292448
  O        30.3270448141       15.1532986372        8.0841963118
  O        28.5547906436       21.0318244515        6.9053202581
  O        28.5168987215       20.9536634054        9.4128047862
  O        27.4568526161       18.6791811955       10.6586536010
  O        26.6955964635       16.9292752657        9.4111569789
  O        13.1488092509       18.6929778265       10.5875285701
  O        13.9193616390       16.9162547214        9.4050097601
  O        50.5962375009       19.3493439356        8.0193586627
  O        47.6829789390       16.3275870379       10.4174900676
  O        46.9526381645       18.1765491792        9.3237570973
  O        11.0695635010       17.0156815438        9.4895647877
  O        47.6917916515       16.3187173084        5.5767168443
  O        46.9579101721       18.1752885332        6.6652343381
  O        49.5707938492       18.3169874029        5.9809263603
  O        10.3189359519       15.0994074743        7.9968850773
  O        52.6707098800       21.0278887838        9.2416843869
  O        12.1466719986       20.8909641349        6.6730153936
  O        13.1091190184       18.6133764097        5.3254524336
  O        13.9571581390       16.9866966971        6.6656712371
  O        29.9897265831       14.4387241382       10.7275142309
  O        28.0886528872       14.6559343044        9.4907574951
  O        32.1438276447       16.8553520542        8.0801816599
  O        30.9644810461       20.9501248708       10.4095972600
  O        32.9461822896       20.6021178996        9.3408804288
  O        29.5683722338       17.0753200364        9.5772768710
  O        30.8796960370       20.9477389218        5.6692404800
  O        32.8838189261       20.5781937687        6.6691331944
  O        31.6778356504       18.2428335864        5.9155736294
  O        28.2957653150       18.6779524304        8.0770070246
  O        32.4978914323       14.2091608246        9.3952468499
  O        32.4006761699       14.2112359755        6.8327097671
  O        29.8743317866       14.5119986135        5.4137379857
  O        28.0427027300       14.5887833873        6.7523412081
  O        17.8891591133        1.9665727362       10.6628446036
  O        18.9561705833        3.5271257860        9.4079985427
  O        39.1686370220       34.1387948428        7.9971851788
  O        43.2802641628       33.0589339071       10.3316997252
  O        42.0346063698       31.5064164945        9.2416349555
  O        20.3175701033        1.0365963531        9.4803541400
  O        43.2761207999       33.1825374767        5.5748713584
  O        42.0053204718       31.5840626388        6.5829792595
  O        40.5790587120       33.7749478816        5.9358731030
  O        22.3672705045        1.3845037538        7.9978915874
  O        36.6727277066       35.0997512292        9.2333264642
  O        16.4454986605        0.0642410158        6.6682811918
  O        17.9364463661        2.0433393898        5.3263615012
  O        18.9189462837        3.5931258333        6.6659298156
  O        29.6824231256       19.0572804728        4.0903352028
  O        29.7838434125       18.8992980631       12.0579959361
  O        31.4345081161       15.8984340271        4.0002648421
  O        31.3453302843       16.3359109115       12.0047567628
  O        31.9400485455       17.2144161364        1.6602029213
  O        29.0183552148       17.4434558377        1.6755751421
  O        30.4019390394       15.6012001222       14.5097865418
  O        31.8579514897       17.6566317550       14.6537381919
  O        28.9423404588       18.3197324019       14.6510910325
  O        39.4567769797       35.2438056374        4.0019684976
  O        19.1410406933        0.0043225295       11.9905867608
  O        41.9696980284       35.1727960193        4.0872538493
  O        21.6913314473       -0.0693410100       11.8958965141
  O        51.3652320506       18.6144056458        4.0053419391
  O        10.7511339162       18.7472218427       11.9047030644
  O        50.0843141693       16.4130732475        4.0886861504
  O         9.5243188753       16.4830658757       11.9909825864
 Zr         9.2998638442       16.0493033106        6.1772584822
 Zr        49.8366851134       16.0063020097        9.7451966388
 Zr        22.0731587524        0.0297546054        6.1891490694
 Zr        42.4607841303       35.1532431666        9.8008898802
 Zr        29.6166911592       19.1134728354        6.2922899493
 Zr        29.5777319192       19.1702303775        9.9078127439
 Zr        11.0378585692       19.0525865135        9.8276254643
 Zr        11.0449003261       19.1537694688        6.2498328416
 Zr        31.3409604051       16.1052768533        9.9066653384
 Zr        31.4233300567       16.0114274836        6.3415411239
 Zr        18.6008667845       -0.0019251934        9.7634003200
 Zr        18.5062401491       -0.0081078016        6.2136946141
 Zr        12.3019163134       16.3237222378        7.9905786394
 Zr        48.6186339191       18.8285338005        8.0074151561
 Zr        20.3147402985        2.4727960627        7.9904826295
 Zr        40.6431522737       32.6867120841        7.9783808920
 Zr        28.3491845276       16.3509073777        8.0834763508
 Zr        32.6404488085       18.8488205425        8.0682550598
  H        30.6862063645       15.3446777831        3.7035702955
  H        30.6648666085       19.5922749926       -0.3152165542
  H        30.5161925290       15.3673175180        0.9662157957
