     569
 i =      186, E =     -4729.4673054002
  C        11.8584020816       14.0533564981        5.7415468407
  C        12.4557978308       12.8902965699        5.0233391485
  C        11.7043491434       12.1718897115        4.0810902080
  C        12.2807157859       11.1096719110        3.3887395621
  C        13.6210632560       10.7393395753        3.6169883382
  C        14.3539144768       11.4423125824        4.5911470479
  C        13.7810280936       12.5072590264        5.2826830799
  C        14.2606581058        9.6487436247        2.8435763101
  C        14.2560613967        9.6567385004        1.4218733938
  C        13.7429682224       10.7588733803        0.6679302298
  C        49.1264179611       21.2334353150        5.8797674311
  C        48.5495722751       22.4011752839        5.1526834384
  C        49.2996172714       23.0685297684        4.1716926262
  C        48.7326481318       24.1075822246        3.4384486180
  C        47.4020660710       24.5091563941        3.6670111227
  C        46.6710847254       23.8602275492        4.6804753491
  C        47.2335536094       22.8153699690        5.4098756391
  C        46.7718909381       25.5868357301        2.8696926963
  C        46.7610837712       25.5572597752        1.4479333508
  C        47.2609760944       24.4421395807        0.7044512338
  C        14.8600259051        8.5704178582        0.7086036325
  C        14.8914050295        8.5967504826        3.5202116638
  C        49.1128477580       21.2034592449       10.1453361753
  C        48.5274883293       22.3647495088       10.8723827974
  C        49.2667223254       23.0255372976       11.8652708153
  C        48.6903435872       24.0600359842       12.5967297322
  C        47.3598765539       24.4567065194       12.3585578366
  C        46.6394670374       23.8117304839       11.3350716274
  C        47.2130477011       22.7758569754       10.6032738836
  C        46.7214610398       25.5316609183       13.1495971759
  C        46.7333274827       25.5280591719       14.5712950207
  C        47.2487298745       24.4288367269       15.3276881124
  C        40.6167357722       17.0814095928       15.3140695885
  C        40.6326355974       17.1054533915       12.5040017290
  C        11.8826269152       14.0862410029       10.2854223859
  C        12.4716919183       12.9101791704       10.9894134046
  C        11.7144248365       12.1777061378       11.9163052240
  C        12.2808968179       11.0952141028       12.5847611665
  C        13.6193863493       10.7206930359       12.3522427363
  C        14.3569639585       11.4353394856       11.3904253063
  C        13.7916497848       12.5165263305       10.7176955053
  C        14.2530758685        9.6240909745       13.1227503708
  C        14.2520510748        9.6442648011       14.5445948743
  C        13.7423384530       10.7532876554       15.2916738081
  C        22.5107813657        3.2431515503        5.7531398148
  C        23.2247842865        4.3470764183        5.0522995496
  C        24.2203856616        4.0645466641        4.1055758796
  C        24.8477280738        5.1026093488        3.4221079560
  C        24.4944631599        6.4445398202        3.6656806847
  C        23.5268449915        6.7186059860        4.6492781761
  C        22.8949885139        5.6823664597        5.3312774334
  C        25.1007734258        7.5496751255        2.8899686814
  C        25.0749071677        7.5423783078        1.4686110963
  C        24.3728902206        6.5434229892        0.7219651143
  C        38.2983945567       31.9284441112        5.8520372153
  C        37.5579521204       30.8400040079        5.1506425379
  C        36.5924451368       31.1467791988        4.1793018500
  C        35.9636773999       30.1286684752        3.4678126326
  C        36.2852987613       28.7776779174        3.7043468251
  C        37.2198043367       28.4783513534        4.7137385569
  C        37.8525193382       29.4953586742        5.4247005287
  C        35.6766793674       27.6891240576        2.9054628399
  C        35.7152825901       27.7044597844        1.4838874968
  C        36.4266102215       28.7059297500        0.7504111689
  C        25.6983063225        8.6125375689        0.7495699003
  C        25.6960658635        8.6246432477        3.5616295101
  C        38.3301380560       31.9605855957       10.1602623679
  C        37.6130660316       30.8879248819       10.9093687081
  C        36.6808061088       31.1979512077       11.9117635933
  C        36.0707811481       30.1813734960       12.6447672660
  C        36.3776489761       28.8275548963       12.4001601155
  C        37.2904955047       28.5274925669       11.3701240851
  C        37.9024021496       29.5405782632       10.6381491840
  C        35.7630293878       27.7294604028       13.1828110142
  C        35.7590369391       27.7253204611       14.6054918127
  C        36.4463005897       28.7168508005       15.3737967641
  C        46.1353882508       26.6207335321       15.2814197872
  C        46.0874199264       26.5799576115       12.4735319464
  C        22.4608320751        3.2551927619       10.2568044194
  C        23.1555642375        4.3634737291       10.9788843217
  C        24.1595704925        4.0766456006       11.9173068132
  C        24.7882538474        5.1063637275       12.6129497795
  C        24.4326553908        6.4520075875       12.3925439316
  C        23.4519341979        6.7321785802       11.4223361445
  C        22.8187162838        5.7027058889       10.7270296854
  C        25.0632227712        7.5492939454       13.1673796490
  C        25.0554416421        7.5421007094       14.5899753639
  C        24.3616548381        6.5445023047       15.3451564650
  C        26.5641775531       17.8224794935        5.7938807987
  C        25.2640550805       17.8702424748        5.0616597085
  C        25.0090531076       18.8748102916        4.1160070424
  C        23.8004109265       18.8985711624        3.4245118666
  C        22.8144311594       17.9197856987        3.6585909912
  C        23.0650443771       16.9366662207        4.6334534815
  C        24.2754842161       16.9088231395        5.3230549634
  C        21.5472229951       17.9103125953        2.8894826058
  C        21.5542673263       17.8949063313        1.4680146060
  C        22.7642170128       17.7740903794        0.7137755708
  C        34.4179371106       17.2198004884        5.9121561593
  C        35.7100165718       17.1529115736        5.1678267999
  C        35.9051713649       16.1832010678        4.1715739042
  C        37.0885191042       16.1565050925        3.4376580477
  C        38.1085330144       17.0985888497        3.6776682457
  C        37.9144529607       18.0484834047        4.6990692762
  C        36.7298730285       18.0799823880        5.4315036073
  C        39.3641638616       17.0988779092        2.8911450843
  C        39.3600773387       17.1058473196        1.4687460411
  C        38.1532584202       17.2243134710        0.7099234523
  C        20.3107603369       17.9174715738        0.7557291058
  C        20.3217039060       17.9123474183        3.5679093538
  C        34.4395357782       17.2361888375       10.1851829889
  C        35.7414034278       17.1374391147       10.9085539065
  C        35.9494563262       16.1527771470       11.8859475884
  C        37.1399707609       16.1209348600       12.6085374799
  C        38.1517270799       17.0730030035       12.3746622654
  C        37.9498341885       18.0309927882       11.3633668065
  C        36.7588578951       18.0675141010       10.6437671353
  C        39.4010288006       17.0878219173       13.1690965358
  C        39.3791236864       17.1005746587       14.5906957441
  C        38.1620172641       17.2195986020       15.3331369621
  C        35.1212420123       26.6477087893       15.3063178430
  C        35.1780565863       26.6573085167       12.4964789777
  C        26.5615796554       17.8137350779       10.3291983344
  C        25.2538887773       17.8489424577       11.0447271558
  C        24.9595416550       18.8888696719       11.9398194294
  C        23.7415415239       18.9087800176       12.6134192005
  C        22.7879100636       17.8925152945       12.4078238418
  C        23.0762281014       16.8747501096       11.4817701777
  C        24.2966132833       16.8503194406       10.8100550791
  C        21.5199239242       17.8813328116       13.1725246395
  C        21.5398658008       17.8803801043       14.5926337044
  C        22.7566997273       17.7683312907       15.3374653278
  C        14.0443442841       17.8295844517       10.2854109785
  C        15.3499183632       17.8871150899       11.0057318142
  C        15.6123305697       18.8960041344       11.9450406782
  C        16.8224534479       18.9145684022       12.6350517153
  C        17.8011555180       17.9266714472       12.4064097984
  C        17.5444066058       16.9429216332       11.4334312444
  C        16.3339623056       16.9201220093       10.7449192246
  C        19.0669997287       17.9036829021       13.1772582311
  C        19.0593531105       17.9029801719       14.5989919697
  C        17.8482486685       17.8102223129       15.3547589626
  C        46.8022662249       17.2170845060       10.1585681821
  C        45.5101338389       17.1486896837       10.9018127216
  C        45.3067141173       16.1674691948       11.8848632431
  C        44.1236244356       16.1405980703       12.6189127484
  C        43.1119875563       17.0946830675       12.3931411391
  C        43.3125133443       18.0552274289       11.3829477303
  C        44.4965324155       18.0860794027       10.6496604171
  C        41.8576252924       17.0973075415       13.1820535322
  C        41.8634162130       17.0971157331       14.6045920814
  C        43.0718350224       17.1957661472       15.3637763108
  C        20.3028051069       17.9094398434       15.3120083920
  C        20.2928563629       17.8728272183       12.4990787458
  C        46.7823833377       17.2312676612        5.8871529270
  C        45.4784386538       17.1233049702        5.1706638978
  C        45.2596750010       16.1219920054        4.2118652707
  C        44.0705913355       16.0903019147        3.4867882573
  C        43.0684104287       17.0567483698        3.7018645741
  C        43.2780300876       18.0284157923        4.6986602960
  C        44.4682654073       18.0664216725        5.4191097195
  C        41.8203271007       17.0731315816        2.9050131863
  C        41.8443377955       17.0831525883        1.4833355193
  C        43.0628508422       17.1860791051        0.7408053556
  C        46.1531332455       26.6371598681        0.7261704824
  C        46.1619017079       26.6559370236        3.5358132034
  C        14.0391899363       17.8278503653        5.7071790866
  C        15.3540444314       17.8951183900        5.0087049608
  C        15.6270109091       18.9157214844        4.0863324692
  C        16.8520353181       18.9492530131        3.4252624589
  C        17.8275438223       17.9611080222        3.6632196577
  C        17.5606602409       16.9670909234        4.6214354175
  C        16.3378390499       16.9331389647        5.2859450204
  C        19.0932932116       17.9364014241        2.8960257642
  C        19.0732271929       17.9189443399        1.4754090463
  C        17.8552627619       17.8172459390        0.7309380846
  C        28.8081524116       14.0888914330       10.3939761632
  C        28.1947464965       12.9154577077       11.0795654851
  C        28.9150973369       12.1818154682       12.0337304174
  C        28.3168224091       11.1060447757       12.6843933518
  C        26.9839808047       10.7413458655       12.4059920085
  C        26.2860561815       11.4550732804       11.4152346350
  C        26.8823919456       12.5304076093       10.7620385896
  C        26.3149803520        9.6618478571       13.1664219265
  C        26.3022814599        9.6876457969       14.5874430293
  C        26.8060631981       10.7997960988       15.3340922947
  C        32.1826252418       21.2375691915       10.1480712385
  C        32.7764879967       22.4039361292       10.8679549265
  C        32.0233679890       23.0890892144       11.8341184817
  C        32.5919479670       24.1290754296       12.5635189646
  C        33.9299561616       24.5131664784       12.3486590535
  C        34.6656424315       23.8470483530       11.3501606596
  C        34.0993871522       22.8015823048       10.6224696719
  C        34.5554257058       25.5892798155       13.1523450208
  C        34.5346593763       25.5634854002       14.5744158712
  C        34.0188317865       24.4501567470       15.3104894333
  C        25.6926951647        8.6090208695       15.3050540855
  C        25.6786741604        8.6116017642       12.4920876965
  C        32.0786100311       21.2056188982        5.8869884758
  C        32.6529994034       22.3703133689        5.1474220265
  C        31.9197235192       23.0152008898        4.1396385962
  C        32.4926311774       24.0527948204        3.4059898539
  C        33.8132837581       24.4743770576        3.6589328127
  C        34.5276435603       23.8425801740        4.6953621066
  C        33.9596497811       22.8017352451        5.4251680877
  C        34.4540069097       25.5577287655        2.8757808251
  C        34.4819653889       25.5477688677        1.4532059034
  C        33.9926370118       24.4430106483        0.6873040440
  C        40.6066976990       17.0790273082        0.7595220573
  C        40.5888431297       17.0984016918        3.5699464312
  C        28.7290164201       14.0600230081        5.8158183569
  C        28.1225594940       12.9167014678        5.0761257846
  C        28.8645404138       12.2107730348        4.1167148458
  C        28.2840862256       11.1551746451        3.4183049540
  C        26.9477533758       10.7776923227        3.6572283554
  C        26.2226504353       11.4704869821        4.6447562060
  C        26.8001951816       12.5284652397        5.3430003499
  C        26.3084847612        9.6865389492        2.8845426980
  C        26.3020031293        9.6995321352        1.4630670222
  C        26.8049037379       10.8066532481        0.7100663823
  C        18.1353209627        3.1807704971       10.3171082095
  C        17.4059258575        4.2780228635       11.0158207828
  C        16.3901555291        3.9995473307       11.9432192059
  C        15.7423075459        5.0394562469       12.6067369891
  C        16.0941425361        6.3831852516       12.3670971116
  C        17.0835637919        6.6528267685       11.4034205387
  C        17.7327717400        5.6155508721       10.7383634752
  C        15.4697253931        7.4908574412       13.1301235367
  C        15.4851797108        7.4903336435       14.5518351925
  C        16.1868541371        6.4967989787       15.3050002538
  C        42.9457488457       31.8594736647       10.0728568272
  C        43.6460876746       30.7717539215       10.8167830967
  C        44.5918380338       31.0930367729       11.8026481206
  C        45.1974946659       30.0874563334       12.5503021011
  C        44.8707501172       28.7344436472       12.3356331691
  C        43.9446484632       28.4201330650       11.3226742985
  C        43.3358909721       29.4253144658       10.5746351014
  C        45.4883477185       27.6551441845       13.1388088499
  C        45.4926560501       27.6808419107       14.5604983495
  C        44.8056596408       28.6889658745       15.3070995289
  C        14.8561919414        8.5628381756       15.2641670301
  C        14.8742184536        8.5624677623       12.4515089856
  C        42.9463246766       31.9615251364        5.8089290783
  C        43.6914588192       30.8853580759        5.0953856842
  C        44.6563868263       31.1912533012        4.1234187826
  C        45.2778573326       30.1716496200        3.4056682798
  C        44.9536587357       28.8213785154        3.6429619520
  C        44.0197209527       28.5237131198        4.6533064806
  C        43.3915137312       29.5404983629        5.3655098145
  C        45.5627329543       27.7239751741        2.8577355254
  C        45.5331900040       27.7173415098        1.4364404441
  C        44.8269383603       28.7076195292        0.6834904982
  C        35.0964838143       26.6384400010        0.7518962270
  C        35.0634657223       26.6160306150        3.5621252594
  C        18.1485410861        3.2467980819        5.7066179567
  C        17.4298282241        4.3436626253        4.9972850591
  C        16.4145130726        4.0523640624        4.0738639618
  C        15.7661509031        5.0829762416        3.3984596152
  C        16.1209116680        6.4281934131        3.6210591559
  C        17.1124396001        6.7116149679        4.5781369221
  C        17.7601542483        5.6827145085        5.2578982620
  C        15.4903617107        7.5238936874        2.8486289464
  C        15.4963218282        7.5073556934        1.4274914589
  C        16.1931205224        6.5056639066        0.6808144855
  H        10.6723964268       12.4663965314        3.9036395481
  H        11.6945530445       10.5515499278        2.6618197379
  H        15.3907076032       11.1671707680        4.7734214361
  H        14.3502137556       13.0699173001        6.0187624899
  H        13.3759869038       11.6310314206        1.2012042525
  H        50.3223473599       22.7485532471        3.9870068417
  H        49.3190840748       24.6228887471        2.6808653954
  H        45.6415443572       24.1608930462        4.8635608104
  H        46.6624487468       22.2900888322        6.1718764554
  H        47.6293389865       23.5756834576        1.2461274090
  H        14.8716159757        8.5878673713        4.6085162186
  H        50.2867863434       22.7027537736       12.0601571696
  H        49.2686741507       24.5755351622       13.3602451785
  H        45.6100028776       24.1088242663       11.1460971965
  H        46.6521253730       22.2536256618        9.8318283054
  H        47.6073469529       23.5516320021       14.7968235962
  H        40.6383412418       17.0732448892       11.4161225227
  H        48.6868488099       14.0950083512        7.7999713396
  H        10.6812122166       12.4673538022       12.0942913989
  H        11.6892468034       10.5253654919       13.2980137737
  H        15.3920535774       11.1566745664       11.2037496480
  H        14.3636927105       13.0851615598        9.9883650961
  H        13.3754838130       11.6218960473       14.7530514812
  H        47.9300551786       14.2177506782        9.7108365273
  H        47.7797403654       14.3728755116        6.4949958601
  H        49.0819146246       18.5520324542       10.8668912049
  H        10.4154460143       14.1343442995        7.9987756653
  H        24.4800161975        3.0253958951        3.9161750623
  H        25.6204302107        4.8843010978        2.6881682546
  H        23.2473862994        7.7521544029        4.8428269784
  H        22.1256417811        5.8835189202        6.0727264301
  H        23.8116343833        5.7863229779        1.2617853063
  H        36.3598680206       32.1908339424        3.9834335716
  H        35.2159154247       30.3711032297        2.7158760984
  H        37.4756772961       27.4382054256        4.9048460327
  H        38.5997099785       29.2708314364        6.1822574871
  H        36.9883573510       29.4558044591        1.2996907829
  H        25.7289040671        8.6081168959        4.6495027087
  H        36.4535726054       32.2423536116       12.1133728974
  H        35.3415029913       30.4292424797       13.4128684193
  H        37.5414131227       27.4871372845       11.1739323300
  H        38.6277819555       29.3118336370        9.8611282938
  H        37.0240766034       29.4747120778       14.8525069317
  H        46.1086192934       26.5872689741       11.3854917874
  H        44.6682469320       35.1161328996        7.8139727495
  H        24.4377045388        3.0382877048       12.0829344985
  H        25.5704261600        4.8775727448       13.3336636073
  H        23.1663576165        7.7668122365       11.2435595017
  H        22.0455842616        5.9155136678        9.9923470826
  H        23.7913708018        5.7886537605       14.8130156478
  H        44.9536819127       34.3902255773        9.6950760915
  H        44.9017434259       34.2067108277        6.4907018546
  H        40.6659138242       33.2087972001       10.8531249187
  H        23.1503378709        1.9576331917        8.0053091690
  H        25.7674420620       19.6340174695        3.9403448755
  H        23.6033374525       19.6837210559        2.6977598984
  H        22.3127822039       16.1729027436        4.8197073865
  H        24.4840098030       16.1383882724        6.0616200171
  H        23.7022751107       17.6539099760        1.2483031897
  H        35.1130104027       15.4623383583        3.9810791260
  H        37.2378094581       15.3957498665        2.6745214163
  H        38.6922062978       18.7852308240        4.8893453425
  H        36.5655650226       18.8284174970        6.2033631011
  H        37.2140205533       17.3512359806        1.2404033570
  H        20.3248159206       17.9471489853        4.6558679004
  H        35.1603207264       15.4294036486       12.0779886167
  H        37.2982005061       15.3541549789       13.3638050214
  H        38.7233961021       18.7729749418       11.1765040042
  H        36.5833804557       18.8258376156        9.8845381496
  H        37.2294143666       17.3414633159       14.7897716433
  H        35.1604990977       26.6810432054       11.4084995051
  H        28.5028118269       21.0960112941        7.8892632099
  H        25.6906223449       19.6826539570       12.0777776436
  H        23.5091425997       19.7177156416       13.3028671669
  H        22.3461736303       16.0841994057       11.3205595660
  H        24.5367059628       16.0563999468       10.1067117785
  H        23.6890504177       17.6443026128       14.7947611007
  H        28.9866659959       21.7274743250        9.7600717771
  H        29.1983247823       21.7019907284        6.5490491124
  H        32.1038146092       18.5207639650       10.9895479380
  H        27.3957330192       19.0749411366        8.0837016175
  H        14.8573505043       19.6593802431       12.1192654372
  H        17.0244939860       19.7014281575       13.3585978889
  H        18.2912979592       16.1733075021       11.2497411620
  H        16.1208919189       16.1479744888       10.0095919152
  H        16.9074808824       17.7001140065       14.8233885508
  H        46.0930568353       15.4387793768       12.0672492129
  H        43.9684754006       15.3715206247       13.3724284166
  H        42.5404407083       18.8003995237       11.2026616430
  H        44.6655072631       18.8425372333        9.8867732056
  H        44.0134509192       17.3110982920       14.8346008806
  H        20.2916020449       17.8960640303       11.4107982414
  H        46.0372202453       15.3820597010        4.0360578570
  H        43.9056643868       15.3123696262        2.7444457306
  H        42.5107957481       18.7800131347        4.8727031776
  H        44.6488584002       18.8359916300        6.1656648646
  H        43.9976726111       17.2927823511        1.2834656407
  H        46.1985111928       26.6824141493        4.6232675996
  H        52.7410361245       21.0625643123        8.1945783333
  H        14.8699217555       19.6755935960        3.9059078949
  H        17.0669371847       19.7431976539        2.7132768412
  H        18.3076564892       16.1985602859        4.8089512200
  H        16.1130714649       16.1551686071        6.0114235739
  H        16.9196095152       17.7126708732        1.2720768605
  H        52.3218622506       21.6734410659        6.2948663555
  H        52.0132824769       21.7023219604        9.4955312968
  H        49.0664614061       18.6077358279        5.2044900070
  H        13.2467066854       19.0164119330        7.9763897536
  H        29.9412248135       12.4699479745       12.2509409015
  H        28.8768974041       10.5354008722       13.4220107726
  H        25.2565685264       11.1821506009       11.1925391863
  H        26.3419163216       13.1022394395       10.0117363079
  H        27.1690898678       11.6694372304       14.7949236208
  H        30.9954520464       22.7801124712       12.0079421372
  H        32.0024801950       24.6587308215       13.3087378138
  H        35.7011458109       24.1333630742       11.1776517962
  H        34.6739353196       22.2627366818        9.8724706898
  H        33.6684424884       23.5801161916       14.7625873729
  H        25.7091826050        8.5927431199       11.4040942897
  H        30.9059919542       22.6783447495        3.9341699469
  H        31.9161094164       24.5526273975        2.6306241045
  H        35.5499784044       24.1549565541        4.8981420578
  H        34.5192866250       22.2923233301        6.2061039793
  H        33.6220283607       23.5672674949        1.2125530085
  H        40.5822875618       17.0653493522        4.6578156874
  H        32.5146707695       14.1472970170        8.2560232526
  H        29.8983903436       12.4970649523        3.9375843406
  H        28.8657633608       10.6042419304        2.6824312557
  H        25.1884109050       11.1908039689        4.8344698230
  H        26.2379074930       13.0807321498        6.0922294428
  H        27.1653588454       11.6818264238        1.2430241355
  H        33.2960234656       14.1978272930        6.4334070287
  H        33.4044904264       14.4119608891        9.6054681530
  H        32.0563505534       18.5443569685        5.1109491287
  H        30.2054174277       14.1467811804        8.0798217942
  H        16.1181883959        2.9630025340       12.1295474845
  H        14.9528279842        4.8199785917       13.3223371236
  H        17.3659257488        7.6857311901       11.2103701382
  H        18.5148162122        5.8182131301       10.0105233901
  H        16.7533775134        5.7394495650       14.7714738605
  H        44.8283160177       32.1400989240       11.9766849762
  H        45.9375268481       30.3411402994       13.3061070762
  H        43.6816223190       27.3781093352       11.1527852614
  H        42.5990517864       29.1900291542        9.8101658373
  H        44.2303020115       29.4367168506       14.7687731118
  H        14.8502425090        8.5454825051       11.3632953906
  H        44.9002264625       32.2339163078        3.9322502869
  H        46.0250174960       30.4128306332        2.6526676410
  H        43.7622928525       27.4840262306        4.8444839875
  H        42.6446330806       29.3177212314        6.1235875833
  H        44.2684412871       29.4705112073        1.2180823599
  H        35.0154385975       26.6288317732        4.6493787234
  H        36.6052158545       35.1339186908        8.1806324511
  H        16.1433844263        3.0127736456        3.9042708362
  H        14.9737417930        4.8560954878        2.6884772233
  H        17.3960593046        7.7470780856        4.7548670642
  H        18.5431488676        5.8931295980        5.9825438688
  H        16.7645570074        5.7554459245        1.2192857029
  H        36.2789459607       34.4820010353        6.2734285605
  H        36.3809826160       34.2089460151        9.4996223825
  H        40.5789747005       33.2017084683        5.1542823804
  H        17.4707130762        1.9468044834        7.9740621106
  H        28.5920281403       18.9150058148       12.0766502948
  H        28.6946361239       19.2286764690        3.8544596351
  H        30.5795555663       15.3818867866        3.9155366477
  H        31.3040670782       15.6447101698       12.5030512111
  H        27.8576849962       18.0970807251       14.5536818709
  H        29.3455405987       15.3788830252       14.3699637136
  H        31.8125812474       16.0078918854        2.2898041385
  H        18.8535449007        0.8689755973       12.3352204446
  H        40.5281846099       35.2290587868        3.9522037207
  H        42.3231973785       34.4182419291        3.5908313682
  H        22.0876654954        0.6921021961       12.3513588430
  H        11.5968242781       18.7129183746       12.3823744403
  H        52.2646180682       18.4310407806        3.6776315199
  H        49.2552073328       16.4765140511        3.5840668763
  H        10.1505423551       15.7981874471       12.2924130826
  H        50.8496449107       17.6926020247        3.9541597791
  H        10.0460208929       17.3946153682       12.0519616268
  H        20.2148460392        0.0021669993       12.0419425556
  H        39.1836946893       36.1243198853        3.6862827662
 Ni        30.0573599351       17.5471043294        3.0768461819
 Ni        31.0265271558       16.1113476455       -0.1646793639
 Ni        29.4280813064       17.5695655379        0.6707326273
 Ni        29.9712361573       17.3549094901       13.0781540092
  O        10.6497564609       14.3652055129        5.4857628579
  O        12.6129828096       14.6573594995        6.5838403670
  O        49.1475739227       16.8460191984        7.9896929052
  O        50.3500608185       20.9363295446        5.6483250403
  O        48.3484528504       20.5932312542        6.6659942156
  O        11.0505637746       17.0542260700        6.5005033292
  O        50.3207745796       20.8817068830       10.4068239681
  O        48.3466409804       20.5866586547        9.3270316403
  O        49.5432467302       18.2484522722       10.0683701397
  O        12.3583420435       18.6246041334        7.9997527831
  O        48.6931394891       14.1486646888        6.7512536983
  O         8.2098033622       14.2104109990        9.3225370715
  O        10.7352447266       14.5067748944       10.6643706502
  O        12.5716611486       14.5826957623        9.3285586912
  O        22.8442182841        2.0422289808        5.4875019966
  O        21.6049984990        3.5918734408        6.5899463375
  O        42.0579742700       34.1371002424        7.9790133667
  O        37.9813776486       33.1372044406        5.5726166439
  O        39.2175748841       31.5756202348        6.6660307643
  O        20.3083248119        1.0394657278        6.5019534069
  O        38.0243772456       33.1849515024       10.4156629472
  O        39.2183822944       31.5829810500        9.3274669062
  O        40.6521642656       33.7691158768       10.0602383171
  O        18.2555505472        1.3758522468        7.9968153186
  O        44.6222507475       35.1004893579        6.7587646235
  O        24.2053997168       -0.0000147929        9.3207992958
  O        22.7529005097        2.0573488743       10.5835953068
  O        21.6241834826        3.5957917805        9.3422947292
  O        27.4517826760       18.6951257947        5.4995101990
  O        26.6949799860       16.9133530232        6.6792359625
  O        30.6674387224       19.4050904665        8.0614372831
  O        33.5412275162       16.3297705035        5.6547944026
  O        34.2694182127       18.1799650355        6.7424926705
  O        29.5407566782       17.0131238535        6.5747992061
  O        33.5552013166       16.3381953662       10.4118156189
  O        34.2983086483       18.2401666053        9.4064157954
  O        31.6469466223       18.3186032222       10.1561277194
  O        30.2976294499       15.1129744194        8.0816448562
  O        28.5476015988       21.0344328619        6.8375749778
  O        28.5130636295       20.9563585910        9.4049916363
  O        27.4465623877       18.6774708397       10.6583569504
  O        26.6894070964       16.9284880766        9.4161374604
  O        13.1474904658       18.6932918645       10.5867337814
  O        13.9175032279       16.9155795208        9.4035813577
  O        50.5952945453       19.3502699407        8.0206986595
  O        47.6825809408       16.3271838452       10.4174139300
  O        46.9500958485       18.1754860255        9.3256921594
  O        11.0686018023       17.0161092264        9.4897514470
  O        47.6742235482       16.3360370420        5.6525442487
  O        46.9247504759       18.2358367554        6.6630557663
  O        49.5684297644       18.3177813856        5.9822357485
  O        10.3183975597       15.1002306845        7.9970932514
  O        52.6707123616       21.0279788005        9.2418229642
  O        12.1467907667       20.8913755178        6.6732756729
  O        13.1053060501       18.6141834394        5.3262498936
  O        13.9544575366       16.9859735090        6.6661191020
  O        29.9908605384       14.4394734824       10.7312043988
  O        28.0864467907       14.6529214653        9.4976060111
  O        32.0741566222       16.8672575367        8.0640296907
  O        30.9662185916       20.9493194848       10.4124743298
  O        32.9467840367       20.6012570372        9.3390446178
  O        29.5583716854       17.0776118055        9.5689426899
  O        30.8561031525       20.8973737752        5.6677189467
  O        32.8740384661       20.5782784193        6.6666337125
  O        31.6058795882       18.2424094587        5.9168117511
  O        28.2800959606       18.6740302916        8.0761807586
  O        32.4912719912       14.2127177543        9.3285934820
  O        32.4055278909       14.2159561680        6.8219393668
  O        29.9088149267       14.4311257987        5.4866095142
  O        28.0330572250       14.5826616523        6.7496370990
  O        17.8891755856        1.9665294447       10.6628520740
  O        18.9561527351        3.5271294975        9.4080360225
  O        39.1685756779       34.1386349526        7.9971668686
  O        43.2802116692       33.0588818117       10.3316761836
  O        42.0344196468       31.5064303282        9.2415889366
  O        20.3174104454        1.0364411665        9.4803298821
  O        43.2760978110       33.1824926284        5.5748898405
  O        42.0052520454       31.5840904913        6.5830306904
  O        40.5791226802       33.7750828948        5.9359100760
  O        22.3672141269        1.3844367309        7.9979834667
  O        36.6727647980       35.0996573727        9.2333303203
  O        16.4455603529        0.0641917744        6.6683054037
  O        17.9363451221        2.0432538551        5.3264152559
  O        18.9188958551        3.5931353139        6.6659273207
  O        29.6063407628       19.0511931943        4.1504092362
  O        29.5729461913       18.9716651098       12.0665979242
  O        31.2196105456       16.1200087889        3.9989056853
  O        31.2704801432       16.4750878054       11.9866495892
  O        32.1995369801       16.0516633396        1.3522199456
  O        30.2037814978       15.8223798615       14.2363171674
  O        28.8187103932       18.2464350715       14.6551026070
  O        39.4568626339       35.2437679814        4.0019770680
  O        19.1414529706        0.0045025553       11.9905375118
  O        41.9695849849       35.1727095843        4.0871228240
  O        21.6912422050       -0.0693774480       11.8958313659
  O        51.3647383324       18.6143614303        4.0053366158
  O        10.7509746258       18.7472751799       11.9049830802
  O        50.0794745573       16.4127983537        4.0917058270
  O         9.5245608328       16.4830654013       11.9912035710
 Zr         9.2957812935       16.0529142606        6.1820759480
 Zr        49.8353887091       16.0069132920        9.7467388331
 Zr        22.0731974062        0.0294511990        6.1891151198
 Zr        42.4607904254       35.1531975537        9.8007990019
 Zr        29.5688390509       19.0651564116        6.2878223055
 Zr        29.5945173179       19.1920173550        9.8480236803
 Zr        11.0366786881       19.0525645597        9.8276127906
 Zr        11.0425570791       19.1553327815        6.2514548550
 Zr        31.3268069543       16.0978144757        9.8653660331
 Zr        31.3781790698       15.9980652200        6.2638101098
 Zr        18.6009132588       -0.0020939905        9.7635319111
 Zr        18.5065227148       -0.0080824454        6.2135379039
 Zr        12.2996722889       16.3230675980        7.9904642891
 Zr        48.6148356724       18.8327952160        8.0102110085
 Zr        20.3149053054        2.4728761081        7.9906261025
 Zr        40.6428228506       32.6865368494        7.9782015074
 Zr        28.3360277635       16.3247704669        8.0827342474
 Zr        32.6203189338       18.8385905395        8.0524947366
  H        28.9360785715       17.0499922185        2.0533393452
  H        28.9817638488       19.1824954572       14.4064296886
  H        32.6629169175       16.9119189260        1.3524532661
