     569
 i =      122, E =     -4729.4806972084
  C        11.8584467890       14.0535348011        5.7415885705
  C        12.4559535122       12.8904532826        5.0233330986
  C        11.7045022623       12.1720594072        4.0810945396
  C        12.2808480994       11.1098392560        3.3887144153
  C        13.6211741061       10.7394847598        3.6169879462
  C        14.3540308144       11.4424333467        4.5911520588
  C        13.7811576536       12.5073985681        5.2826886096
  C        14.2608029237        9.6489008271        2.8435728901
  C        14.2563657201        9.6569365378        1.4218669202
  C        13.7432904928       10.7590771991        0.6679199049
  C        49.1265422941       21.2332850974        5.8797496056
  C        48.5498212945       22.4010626911        5.1526442146
  C        49.2998691376       23.0684350941        4.1716606442
  C        48.7329190419       24.1075242465        3.4384555329
  C        47.4023501483       24.5091592167        3.6670543402
  C        46.6713674583       23.8601815201        4.6804944710
  C        47.2337960441       22.8152612767        5.4098185271
  C        46.7721753786       25.5868578974        2.8697892804
  C        46.7614736035       25.5574068359        1.4479785955
  C        47.2612861103       24.4423021181        0.7044992436
  C        14.8603603649        8.5706216806        0.7086081577
  C        14.8914341630        8.5968469442        3.5202157065
  C        49.1129551113       21.2034399751       10.1453022445
  C        48.5276590445       22.3647204457       10.8724121858
  C        49.2669078287       23.0255361194       11.8652788986
  C        48.6905458358       24.0600366505       12.5967436564
  C        47.3600798519       24.4567465172       12.3585763289
  C        46.6396317576       23.8116890446       11.3351587847
  C        47.2131796336       22.7757794327       10.6033943866
  C        46.7216880258       25.5317126145       13.1495967264
  C        46.7336920330       25.5282205516       14.5713381159
  C        47.2490212051       24.4290006411       15.3277075939
  C        40.6187070630       17.0677156078       15.3148548233
  C        40.6348590030       17.0996888464       12.5046833451
  C        11.8827200269       14.0864390431       10.2853823783
  C        12.4719290983       12.9103394338       10.9893955371
  C        11.7146868425       12.1778052399       11.9162374629
  C        12.2811807610       11.0952896063       12.5846580672
  C        13.6197254419       10.7209380653       12.3522682541
  C        14.3573165976       11.4356849565       11.3905446835
  C        13.7919707268       12.5168983650       10.7178616724
  C        14.2534203021        9.6243000954       13.1227454321
  C        14.2524709592        9.6444994844       14.5445910288
  C        13.7427197485       10.7535086447       15.2916635823
  C        22.5102845322        3.2434899815        5.7535736449
  C        23.2224947514        4.3493917664        5.0535809634
  C        24.2186741678        4.0706343468        4.1064526739
  C        24.8427807085        5.1113582350        3.4238985939
  C        24.4855328664        6.4520237013        3.6688768106
  C        23.5176963616        6.7223552749        4.6531676992
  C        22.8891769331        5.6835021392        5.3341896022
  C        25.0875145643        7.5595789199        2.8932319074
  C        25.0602880824        7.5523059157        1.4718837574
  C        24.3606059482        6.5511931102        0.7258716147
  C        38.2975826717       31.9278954085        5.8522764741
  C        37.5549552801       30.8397978029        5.1520661391
  C        36.5897585140       31.1475700763        4.1805691103
  C        35.9581880389       30.1303114117        3.4702932284
  C        36.2761716057       28.7784904152        3.7076950272
  C        37.2103919878       28.4782636911        4.7172804486
  C        37.8460091886       29.4945168135        5.4270955889
  C        35.6649105936       27.6909783520        2.9088170774
  C        35.7033565366       27.7063397405        1.4867395555
  C        36.4164871867       28.7064754414        0.7536388007
  C        25.6812172519        8.6233200657        0.7520906576
  C        25.6810428253        8.6359848913        3.5643916012
  C        38.3299200609       31.9599257606       10.1609584922
  C        37.6127194738       30.8874222173       10.9107573349
  C        36.6803123179       31.1977863301       11.9131356490
  C        36.0693398862       30.1817739315       12.6462916144
  C        36.3747366439       28.8273247739       12.4023166114
  C        37.2881016246       28.5269800577       11.3725641332
  C        37.9010208408       29.5395531635       10.6404343158
  C        35.7580794904       27.7297805957       13.1846981138
  C        35.7503926984       27.7265382296       14.6078533635
  C        36.4375188750       28.7172851823       15.3768122872
  C        46.1358209331       26.6209459514       15.2814659896
  C        46.0875179506       26.5799372812       12.4735494134
  C        22.4601065914        3.2552198509       10.2572065601
  C        23.1529627862        4.3642362064       10.9804127441
  C        24.1554475133        4.0787965177       11.9208375575
  C        24.7816333105        5.1094443691       12.6175427607
  C        24.4250738156        6.4546099933       12.3958852555
  C        23.4459379002        6.7334128592       11.4236869781
  C        22.8150877080        5.7030270836       10.7276216423
  C        25.0531602138        7.5534615343       13.1706774165
  C        25.0430477201        7.5487090731       14.5932727804
  C        24.3504238098        6.5507805603       15.3490413753
  C        26.6090141396       17.8494471039        5.7899340006
  C        25.3031250755       17.8957161063        5.0690988661
  C        25.0399283890       18.8995419580        4.1231649850
  C        23.8288539934       18.9179657167        3.4347720006
  C        22.8444756651       17.9371722704        3.6711374577
  C        23.1031267808       16.9563782238        4.6474521482
  C        24.3166928318       16.9314714919        5.3329635620
  C        21.5730048268       17.9242399052        2.9045676795
  C        21.5746650114       17.9076959913        1.4820784973
  C        22.7815144205       17.7903976187        0.7224935557
  C        34.4312636606       17.2159810281        5.9201918039
  C        35.7204938132       17.1509364999        5.1754330985
  C        35.9176841315       16.1724636344        4.1878297002
  C        37.0984409985       16.1459384041        3.4506945601
  C        38.1144266216       17.0948172574        3.6805670289
  C        37.9187496122       18.0528779297        4.6941399663
  C        36.7359288768       18.0858193620        5.4288364425
  C        39.3685866787       17.0923781110        2.8929561566
  C        39.3628853219       17.0926947220        1.4701778924
  C        38.1558778973       17.2074178026        0.7123061101
  C        20.3282192398       17.9254672066        0.7730608782
  C        20.3481177326       17.9260593384        3.5860383690
  C        34.4452916459       17.2356095845       10.1877120364
  C        35.7463773915       17.1322098727       10.9052250873
  C        35.9461636941       16.1553716867       11.8929381358
  C        37.1357654732       16.1209886201       12.6156452048
  C        38.1557451539       17.0626653769       12.3732167580
  C        37.9624046323       18.0108863850       11.3502540067
  C        36.7724064923       18.0503815179       10.6300366460
  C        39.4027983865       17.0776568193       13.1691715497
  C        39.3806399053       17.0865160228       14.5917494888
  C        38.1643143857       17.2030536245       15.3349496275
  C        35.1097065643       26.6501658714       15.3084056379
  C        35.1744147745       26.6568582815       12.4981802611
  C        26.5568437250       17.8097959814       10.3218470227
  C        25.2495772936       17.8485036678       11.0364410627
  C        24.9636025089       18.8842646549       11.9397767009
  C        23.7483841298       18.9052955212       12.6186244557
  C        22.7884632718       17.8947219268       12.4118968586
  C        23.0685309097       16.8821704466       11.4768157855
  C        24.2858825176       16.8561471290       10.7994119548
  C        21.5237264069       17.8828649173       13.1834595951
  C        21.5491845896       17.8866454042       14.6042756119
  C        22.7687138121       17.7813193692       15.3459073111
  C        14.0452228333       17.8273460188       10.2898838962
  C        15.3488595230       17.8801821119       11.0180972945
  C        15.6095858047       18.8853084252       11.9623797180
  C        16.8181425824       18.9024743998       12.6563334879
  C        17.7997153656       17.9168660139       12.4282804595
  C        17.5432934638       16.9348802893       11.4528785991
  C        16.3344820637       16.9136603674       10.7601465173
  C        19.0687367509       17.8976786895       13.1973239013
  C        19.0679470655       17.9016755120       14.6197076426
  C        17.8603573770       17.8081522432       15.3806873173
  C        46.8025181799       17.2167973917       10.1586474854
  C        45.5111754131       17.1473602578       10.9019010796
  C        45.3097186629       16.1662470754       11.8856063467
  C        44.1269951271       16.1376399844       12.6197830351
  C        43.1133927338       17.0896522724       12.3935692625
  C        43.3122089498       18.0502034868       11.3828772274
  C        44.4959492423       18.0829525380       10.6494446640
  C        41.8595342602       17.0902299965       13.1823272891
  C        41.8654775477       17.0865645808       14.6054130438
  C        43.0733945671       17.1867421155       15.3639195209
  C        20.3145564986       17.9139146387       15.3284217232
  C        20.2930538846       17.8682397298       12.5153345727
  C        46.7830063442       17.2304917123        5.8878828899
  C        45.4799084284       17.1206996848        5.1724526861
  C        45.2641730143       16.1209549435        4.2111679206
  C        44.0758628944       16.0882303041        3.4855341114
  C        43.0710279574       17.0515851340        3.7028555602
  C        43.2774649563       18.0209448646        4.7028083205
  C        44.4671758389       18.0604335009        5.4234814757
  C        41.8239593872       17.0668147484        2.9061346689
  C        41.8473135289       17.0728261554        1.4839360906
  C        43.0649958747       17.1770691619        0.7413649391
  C        46.1535813233       26.6373675061        0.7262352032
  C        46.1620332491       26.6558592820        3.5359170297
  C        14.0438723098       17.8309337422        5.7093518722
  C        15.3647228663       17.9035363579        5.0188204917
  C        15.6415127387       18.9225395535        4.0955358317
  C        16.8710050095       18.9584709505        3.4418159749
  C        17.8495735984       17.9742967622        3.6862752191
  C        17.5795185745       16.9835796242        4.6473974727
  C        16.3522701286       16.9474430478        5.3048234857
  C        19.1165805882       17.9478938017        2.9181646354
  C        19.0929213357       17.9259568681        1.4970497467
  C        17.8727273517       17.8189169488        0.7566970354
  C        28.8028877598       14.0889263919       10.3978249225
  C        28.1891952990       12.9148855579       11.0797941126
  C        28.9046099722       12.1878359563       12.0427656470
  C        28.3043343756       11.1133803673       12.6932732388
  C        26.9742635582       10.7444619341       12.4071141385
  C        26.2817633263       11.4514891243       11.4076971591
  C        26.8801910941       12.5251345486       10.7538454561
  C        26.3027469329        9.6674563182       13.1684715133
  C        26.2860793373        9.6966504748       14.5895091083
  C        26.7860396951       10.8111937258       15.3352965313
  C        32.1842586399       21.2367052693       10.1478195358
  C        32.7752252829       22.4014259971       10.8688289984
  C        32.0207624327       23.0848661242       11.8356214080
  C        32.5876859778       24.1258542005       12.5646440391
  C        33.9248581731       24.5133226884       12.3494258298
  C        34.6615827968       23.8484863079       11.3504678229
  C        34.0976079527       22.8018457455       10.6230465460
  C        34.5487183822       25.5901207586       13.1534999461
  C        34.5235978925       25.5658693983       14.5759736464
  C        34.0057929906       24.4537018899       15.3118599732
  C        25.6770823561        8.6180745997       15.3076299777
  C        25.6691203503        8.6150949374       12.4948497438
  C        32.0776442855       21.1952391760        5.8771564451
  C        32.6410005624       22.3664834136        5.1447533722
  C        31.9101834014       23.0042304771        4.1299617788
  C        32.4806666406       24.0455205603        3.3998963313
  C        33.7961488520       24.4788238341        3.6618135258
  C        34.5061389186       23.8556047223        4.7071131556
  C        33.9413247066       22.8115301802        5.4338464620
  C        34.4375039670       25.5616175026        2.8786285194
  C        34.4660250891       25.5514814991        1.4554073342
  C        33.9773954718       24.4471481140        0.6888768241
  C        40.6093016125       17.0657029169        0.7604445762
  C        40.5929054676       17.0958845340        3.5713632881
  C        28.7300039715       14.0629128370        5.8196559838
  C        28.1190259783       12.9234567624        5.0770640973
  C        28.8584140570       12.2098105431        4.1211331187
  C        28.2724104647       11.1580483522        3.4214487056
  C        26.9332506104       10.7891818689        3.6577962314
  C        26.2107525843       11.4879980647        4.6429743684
  C        26.7933596060       12.5435870607        5.3407465744
  C        26.2909334214        9.6986591163        2.8862819943
  C        26.2831250496        9.7117051597        1.4648864002
  C        26.7838596241       10.8193814189        0.7113530594
  C        18.1353044034        3.1806784159       10.3171713903
  C        17.4058762686        4.2779531399       11.0157956625
  C        16.3903388796        3.9995590335       11.9434780165
  C        15.7425418835        5.0395147441       12.6069744481
  C        16.0942326771        6.3832480416       12.3671104924
  C        17.0834029612        6.6528024858       11.4031437639
  C        17.7325565426        5.6154824669       10.7381158866
  C        15.4699410019        7.4909835212       13.1301323927
  C        15.4854877045        7.4905047270       14.5518423360
  C        16.1871313544        6.4969585528       15.3050233405
  C        42.9457903415       31.8593935715       10.0728738310
  C        43.6461467610       30.7717801737       10.8167393041
  C        44.5916811765       31.0931005210       11.8028362666
  C        45.1973562071       30.0875532743       12.5504888264
  C        44.8709707942       28.7344620450       12.3356157600
  C        43.9451488387       28.4201408685       11.3223731770
  C        43.3363355524       29.4252761221       10.5743339640
  C        45.4885686730       27.6552081093       13.1388063362
  C        45.4930382571       27.6810339120       14.5605389779
  C        44.8060283135       28.6890820230       15.3071572319
  C        14.8565623863        8.5630494280       15.2641697927
  C        14.8744543560        8.5626132279       12.4515132191
  C        42.9463939969       31.9614335559        5.8089749122
  C        43.6915905543       30.8853760457        5.0955770167
  C        44.6561845510       31.1912876611        4.1232400359
  C        45.2776800591       30.1717140558        3.4055159576
  C        44.9539559599       28.8213572042        3.6431487416
  C        44.0204465604       28.5237038990        4.6539297630
  C        43.3921673251       29.5404524510        5.3661031498
  C        45.5629919284       27.7240089039        2.8578844836
  C        45.5335833293       27.7175133473        1.4365334167
  C        44.8273086092       28.7077207558        0.6835830173
  C        35.0828515773       26.6413789268        0.7543115661
  C        35.0496046156       26.6188366698        3.5649626570
  C        18.1484714161        3.2468060329        5.7066662522
  C        17.4297994821        4.3436943139        4.9973461656
  C        16.4147275487        4.0524199619        4.0736487524
  C        15.7663845619        5.0830436812        3.3982460158
  C        16.1208953826        6.4282864181        3.6211060817
  C        17.1121247973        6.7116744723        4.5785123277
  C        17.7598115372        5.6827651219        5.2582758985
  C        15.4904628475        7.5240181115        2.8486452836
  C        15.4965594067        7.5075105335        1.4275087842
  C        16.1933815975        6.5058289703        0.6808371599
  H        10.6725513859       12.4665984153        3.9036750831
  H        11.6946540849       10.5517387662        2.6618045275
  H        15.3908023515       11.1672372867        4.7734552079
  H        14.3503027056       13.0700931385        6.0187724453
  H        13.3761807921       11.6311718583        1.2012084494
  H        50.3225854067       22.7484379199        3.9869404468
  H        49.3193455510       24.6227876212        2.6808382930
  H        45.6417951630       24.1607554007        4.8635290336
  H        46.6626369144       22.2898726751        6.1717013511
  H        47.6295203033       23.5757801161        1.2461529434
  H        14.8714670866        8.5879048228        4.6085159635
  H        50.2869760248       22.7027650559       12.0601531221
  H        49.2688827709       24.5755201286       13.3602626660
  H        45.6101254672       24.1086781701       11.1462645881
  H        46.6521838566       22.2534369347        9.8320797374
  H        47.6075037307       23.5517406822       14.7968488504
  H        40.6409782738       17.0697444758       11.4167475553
  H        48.6868073063       14.0949268097        7.7998890319
  H        10.6814147980       12.4673308636       12.0940866993
  H        11.6895091923       10.5253879342       13.2978499565
  H        15.3924493641       11.1571202263       11.2039668901
  H        14.3639392842       13.0855994791        9.9885218773
  H        13.3757844557       11.6220679628       14.7530158603
  H        47.9299499950       14.2182520932        9.7106329396
  H        47.7799313247       14.3735786701        6.4949029222
  H        49.0819779355       18.5518653874       10.8668352297
  H        10.4153385541       14.1344158261        7.9986262719
  H        24.4811016159        3.0324108937        3.9156885026
  H        25.6157461008        4.8960437302        2.6893465252
  H        23.2351015167        7.7548408897        4.8478106305
  H        22.1193684120        5.8815239499        6.0759772774
  H        23.8006902237        5.7934098581        1.2661091774
  H        36.3594022262       32.1919197680        3.9836291935
  H        35.2108494687       30.3742114894        2.7183953485
  H        37.4641999475       27.4377801172        4.9093766379
  H        38.5928492338       29.2685668200        6.1846146990
  H        36.9789858117       29.4556719766        1.3030611620
  H        25.7153788013        8.6192559646        4.6522258517
  H        36.4534087394       32.2422955030       12.1146235150
  H        35.3399325115       30.4307591305       13.4139242472
  H        37.5388228350       27.4865310853       11.1765316882
  H        38.6265556405       29.3097436823        9.8638362735
  H        37.0169800016       29.4743660625       14.8562438673
  H        46.1085972236       26.5871281316       11.3855058460
  H        44.6681869349       35.1160636678        7.8139558848
  H        24.4344495042        3.0407862193       12.0872687277
  H        25.5627273191        4.8816436809       13.3397482816
  H        23.1595905178        7.7676788604       11.2440297116
  H        22.0430294706        5.9147059231        9.9914935738
  H        23.7822626337        5.7930782772       14.8172223923
  H        44.9535771991       34.3901513249        9.6950145512
  H        44.9015634850       34.2066858200        6.4906031132
  H        40.6657832026       33.2084671532       10.8529982688
  H        23.1502839979        1.9574019804        8.0053669072
  H        25.7945621537       19.6615724076        3.9421451060
  H        23.6296762032       19.7019627436        2.7072919707
  H        22.3542806517       16.1903537511        4.8383001365
  H        24.5280783570       16.1601207408        6.0699409154
  H        23.7233013213       17.6759977923        1.2517543252
  H        35.1294263245       15.4448555890        4.0074366373
  H        37.2497403588       15.3801706115        2.6930219857
  H        38.6940240669       18.7943331215        4.8758349842
  H        36.5702046987       18.8405115925        6.1942332198
  H        37.2159725365       17.3329581455        1.2420946978
  H        20.3539760704       17.9627686499        4.6740026040
  H        35.1501968935       15.4422514385       12.0946334710
  H        37.2870259512       15.3604336795       13.3784835126
  H        38.7419856295       18.7446481123       11.1562174538
  H        36.6042184094       18.8026391467        9.8631915021
  H        37.2306869212       17.3246244076       14.7933682323
  H        35.1599852815       26.6794453706       11.4101102964
  H        28.5105290308       21.0893095429        7.8710472013
  H        25.6999835972       19.6725120447       12.0821605326
  H        23.5242559194       19.7112390715       13.3142682127
  H        22.3347072839       16.0954902877       11.3137882150
  H        24.5188135929       16.0641082989       10.0915041176
  H        23.7005105913       17.6597465651       14.8016130940
  H        28.9606336412       21.7336303455        9.7752894808
  H        29.1861120588       21.7123841511        6.5412049849
  H        32.0993386037       18.5543653063       10.9929056237
  H        27.4176108686       19.0790314084        8.0687546021
  H        14.8548106185       19.6488598826       12.1370226371
  H        17.0168168221       19.6886148436       13.3816399243
  H        18.2901741693       16.1654029477       11.2683705901
  H        16.1248693213       16.1428097787       10.0223605524
  H        16.9177403108       17.6940028710       14.8533281125
  H        46.0973948765       15.4390670890       12.0681282180
  H        43.9733066072       15.3687250984       13.3737351461
  H        42.5388663680       18.7940753546       11.2027400376
  H        44.6635803446       18.8395037698        9.8863591031
  H        44.0146636972       17.3043757540       14.8346989986
  H        20.2876392623       17.8884129634       11.4269781079
  H        46.0436396135       15.3833795897        4.0341722547
  H        43.9130438307       15.3118520041        2.7411482419
  H        42.5081973532       18.7701003820        4.8782811213
  H        44.6457144267       18.8285860459        6.1719684948
  H        43.9998650772       17.2861831050        1.2833873650
  H        46.1985489068       26.6822072984        4.6233778930
  H        52.7408629806       21.0625262057        8.1946018842
  H        14.8834045208       19.6795558111        3.9071691277
  H        17.0860497241       19.7512609029        2.7285376791
  H        18.3270804513       16.2174144426        4.8423969763
  H        16.1269546045       16.1704864943        6.0312621192
  H        16.9392558585       17.7131356133        1.3012633168
  H        52.3215764556       21.6730280565        6.2946603929
  H        52.0127697929       21.7017184599        9.4956713803
  H        49.0660612122       18.6074120001        5.2046298651
  H        13.2468910369       19.0166901345        7.9775837233
  H        29.9272358694       12.4814245447       12.2688246484
  H        28.8604043919       10.5479052071       13.4378147690
  H        25.2544354087       11.1753198387       11.1791732094
  H        26.3434218273       13.0926256870        9.9976441322
  H        27.1474809751       11.6813243754       14.7957435688
  H        30.9935458710       22.7747756537       12.0115368782
  H        31.9969446406       24.6534871806       13.3102518638
  H        35.6965464665       24.1365664416       11.1777738451
  H        34.6738874971       22.2644613102        9.8733702739
  H        33.6560434566       23.5827198171       14.7650333692
  H        25.7025367964        8.5938377015       11.4069934114
  H        30.9013106145       22.6595319034        3.9137900757
  H        31.9056401579       24.5383853492        2.6190270278
  H        35.5241850879       24.1763993865        4.9180498294
  H        34.4995859895       22.3090582834        6.2201799912
  H        33.6058210841       23.5707435237        1.2122855413
  H        40.5867221355       17.0674903609        4.6593572208
  H        32.5279674491       14.1300333017        8.3550159693
  H        29.8965277716       12.4826657127        3.9456370555
  H        28.8523353273       10.6026270920        2.6875643462
  H        25.1746265812       11.2146127402        4.8316081529
  H        26.2325670217       13.0998345803        6.0881399179
  H        27.1426178268       11.6957434978        1.2435517575
  H        33.2819438796       14.1162629790        6.4772209662
  H        33.4013312934       14.4311713602        9.6945256527
  H        32.1393469602       18.4815465256        5.1212668107
  H        30.2115911650       14.1428775961        8.1397474691
  H        16.1184539956        2.9630244390       12.1299898255
  H        14.9531948964        4.8200690918       13.3227314412
  H        17.3655657419        7.6857137183       11.2098436824
  H        18.5143813529        5.8180991911       10.0100311149
  H        16.7536142924        5.7395654113       14.7715180496
  H        44.8279523446       32.1401751684       11.9770586787
  H        45.9371791977       30.3412909052       13.3064767517
  H        43.6823965133       27.3780828123       11.1522751642
  H        42.5997216355       29.1898821118        9.8096815567
  H        44.2305497755       29.4367798326       14.7688941867
  H        14.8503408818        8.5455844134       11.3633040330
  H        44.8997416075       32.2339618231        3.9317877318
  H        46.0245305842       30.4129370380        2.6522262500
  H        43.7633753039       27.4839884092        4.8454270289
  H        42.6456126730       29.3175746185        6.1244720560
  H        44.2686895006       29.4705463343        1.2181340352
  H        35.0016102096       26.6320257619        4.6522375758
  H        36.6051597096       35.1338353986        8.1806846481
  H        16.1437546201        3.0128223546        3.9038477826
  H        14.9741339507        4.8561599339        2.6880863531
  H        17.3954398155        7.7471680641        4.7555470422
  H        18.5425272730        5.8931615929        5.9832276109
  H        16.7647558826        5.7555638754        1.2193063264
  H        36.2787451336       34.4820553259        6.2733933863
  H        36.3808104855       34.2089613428        9.4997427502
  H        40.5788823679       33.2014725908        5.1544678426
  H        17.4706753738        1.9465109023        7.9741050237
  H        28.5950156936       18.6178893302       11.9370770268
  H        28.6901726972       18.6917605562        3.8564110507
  H        30.7992598097       15.0578670178        3.8859446917
  H        31.3476639795       15.5694668050       12.5724063608
  H        27.8410622716       18.3675934285       14.3517393276
  H        29.3549060554       15.3581067045       14.5036845723
  H        32.4868693737       17.3746807865        1.3176960011
  H        18.8533759645        0.8689649545       12.3350952389
  H        40.5280533377       35.2290437235        3.9522290976
  H        42.3230902134       34.4180383304        3.5910958883
  H        22.0878143293        0.6921779256       12.3513611479
  H        11.5970808520       18.7131560490       12.3821085101
  H        52.2649767711       18.4307234840        3.6777421235
  H        49.2549858580       16.4775335475        3.5848011365
  H        10.1507578722       15.7981550426       12.2924799219
  H        50.8498141722       17.6924719443        3.9543902660
  H        10.0461679464       17.3945008549       12.0520185498
  H        20.2146733138        0.0021809011       12.0420106790
  H        39.1835453690       36.1243015925        3.6863945669
 Ni        30.4371372949       17.8209128479        2.5806615138
 Ni        30.8606362260       16.3556166672        0.0017926905
 Ni        29.5040622112       18.1642868435        0.3346529630
 Ni        30.0549703829       17.3037093254       13.2403202456
  O        10.6498476765       14.3651545857        5.4857606797
  O        12.6131253126       14.6574930366        6.5838647425
  O        49.1477125020       16.8460644324        7.9897465940
  O        50.3501887561       20.9359828218        5.6482435013
  O        48.3485139622       20.5932547572        6.6659970587
  O        11.0512719371       17.0540404200        6.5005007130
  O        50.3209496596       20.8816638208       10.4067631759
  O        48.3467272543       20.5866793279        9.3270395102
  O        49.5434080067       18.2485092226       10.0682819912
  O        12.3586382403       18.6245626972        7.9997967900
  O        48.6931667531       14.1486349040        6.7512301053
  O         8.2098122447       14.2103593134        9.3225605712
  O        10.7353526506       14.5067224850       10.6643604106
  O        12.5717863095       14.5828291482        9.3285025697
  O        22.8443370584        2.0429373894        5.4874050382
  O        21.6045395911        3.5916787926        6.5905217664
  O        42.0578483856       34.1369886160        7.9790420940
  O        37.9813092458       33.1368267516        5.5725043596
  O        39.2173664352       31.5753370612        6.6657947569
  O        20.3082226426        1.0392417756        6.5019316790
  O        38.0241798970       33.1845596576       10.4158213632
  O        39.2180854715       31.5827168710        9.3277331196
  O        40.6521004687       33.7690101031       10.0602575361
  O        18.2555498504        1.3756000330        7.9968171547
  O        44.6222239178       35.1005056798        6.7587425920
  O        24.2053964626        0.0000152141        9.3208087869
  O        22.7529416111        2.0575707162       10.5837214950
  O        21.6241235173        3.5957399762        9.3421588013
  O        27.4855939138       18.7445077384        5.4969559178
  O        26.7660453276       16.9287377502        6.6592778900
  O        30.6807325168       19.3537992581        8.0160966711
  O        33.5552723078       16.3244211501        5.6656532226
  O        34.2748167307       18.1809087794        6.7448631874
  O        29.5997587538       17.0029611545        6.5844687242
  O        33.5582135306       16.3406068427       10.4150079127
  O        34.3000555909       18.2410228051        9.4085773444
  O        31.6476078658       18.3189859832       10.1646676734
  O        30.3060649751       15.1091011316        8.1425952278
  O        28.5530553147       21.0289222550        6.8280037687
  O        28.5150587956       20.9537876593        9.4040709721
  O        27.4442618525       18.6734000960       10.6545583103
  O        26.6903753714       16.9263495057        9.4096378071
  O        13.1488866858       18.6928645820       10.5877825571
  O        13.9191280296       16.9160037978        9.4049980601
  O        50.5953896924       19.3501342070        8.0205352622
  O        47.6832871586       16.3270076941       10.4172141846
  O        46.9502780985       18.1754044941        9.3257607968
  O        11.0692546166       17.0157907266        9.4898125455
  O        47.6756146994       16.3357913832        5.6529819393
  O        46.9253230599       18.2356332148        6.6633571411
  O        49.5683488447       18.3177806894        5.9822926833
  O        10.3185033122       15.1003176054        7.9970851135
  O        52.6707111836       21.0278888913        9.2418351494
  O        12.1468067544       20.8911852608        6.6731976814
  O        13.1079415951       18.6137271762        5.3257592001
  O        13.9566664422       16.9865991038        6.6659901461
  O        29.9857642133       14.4381196693       10.7385811718
  O        28.0850606395       14.6546950493        9.4990348629
  O        32.0845613624       16.8576596808        8.0916236222
  O        30.9661108395       20.9450836017       10.4105411673
  O        32.9457010679       20.6007146092        9.3362385974
  O        29.5637929058       17.0805906753        9.5794940113
  O        30.8538606357       20.8748906527        5.6526130688
  O        32.8709903651       20.5756679061        6.6631441545
  O        31.6481737825       18.1828898295        5.9045420105
  O        28.3000968715       18.6737824757        8.0673683840
  O        32.4927782688       14.2113430740        9.4150950348
  O        32.4144896159       14.2008487080        6.9066494232
  O        29.9101672041       14.4348394663        5.4924580758
  O        28.0373259312       14.5842406070        6.7556750877
  O        17.8891377691        1.9664476507       10.6628473269
  O        18.9561057030        3.5270845346        9.4080326226
  O        39.1685613721       34.1384794250        7.9971866444
  O        43.2801731185       33.0589112719       10.3316449314
  O        42.0343735477       31.5064763418        9.2415923338
  O        20.3173604126        1.0362804001        9.4805030193
  O        43.2760574738       33.1825136959        5.5748998928
  O        42.0052155449       31.5841101943        6.5830538583
  O        40.5791829101       33.7751884283        5.9358569276
  O        22.3670884216        1.3843234784        7.9979751603
  O        36.6727696959       35.0996037977        9.2333641322
  O        16.4455310860        0.0641372876        6.6682901850
  O        17.9364179494        2.0433090282        5.3263399245
  O        18.9188740079        3.5931135073        6.6659665598
  O        29.6416244683       18.7009216162        4.0738406089
  O        29.5314330696       18.9004458378       12.0795985173
  O        31.5934856228       15.5996573556        4.0734180242
  O        31.3080496596       16.4036703617       12.0632099532
  O        31.7664766820       16.7785182384        1.5980000002
  O        30.2428402630       15.7474331221       14.3948000061
  O        28.7720555301       18.6183520253       14.4922246304
  O        39.4567735949       35.2437274626        4.0019769062
  O        19.1413687004        0.0044578084       11.9905640415
  O        41.9695912623       35.1727229933        4.0871572177
  O        21.6913251333       -0.0692690951       11.8958629529
  O        51.3651834793       18.6142942276        4.0055303434
  O        10.7511433570       18.7472754729       11.9048606706
  O        50.0796669724       16.4128866323        4.0916834720
  O         9.5248092626       16.4830147298       11.9912307226
 Zr         9.2954079044       16.0529805403        6.1821713789
 Zr        49.8350553226       16.0069081990        9.7466788389
 Zr        22.0731002984        0.0290588616        6.1891873970
 Zr        42.4607628609       35.1528139857        9.8007984670
 Zr        29.6042300696       19.0438265240        6.2241878875
 Zr        29.6064564135       19.2017164948        9.8255796231
 Zr        11.0366380703       19.0523087887        9.8274339849
 Zr        11.0425143131       19.1550757265        6.2515399873
 Zr        31.3231430011       16.0985901106        9.9431156555
 Zr        31.4216297380       15.9699818318        6.3630060691
 Zr        18.6007434516       -0.0025292191        9.7635993493
 Zr        18.5064028158       -0.0084205398        6.2134953640
 Zr        12.3001758787       16.3234710846        7.9903002835
 Zr        48.6141236091       18.8326698106        8.0101918189
 Zr        20.3144501825        2.4723431781        7.9907663463
 Zr        40.6426770643       32.6860767256        7.9781910894
 Zr        28.3592569981       16.3296428151        8.0900768803
 Zr        32.6379035370       18.8299913112        8.0545572826
  H        29.1695512734       17.4320360253        1.6325742710
  H        29.0716970267       19.1491885480       13.6680912587
  H        31.8497037151       16.0412895441        3.2119402866
