     569
 i =      154, E =     -4729.5007093412
  C        11.8585374015       14.0534006996        5.7415516500
  C        12.4559944462       12.8903390857        5.0233031125
  C        11.7044610540       12.1717954572        4.0812396320
  C        12.2807971603       11.1095685164        3.3888709257
  C        13.6211908017       10.7393629782        3.6169918025
  C        14.3541534533       11.4424798566        4.5909530099
  C        13.7812823396       12.5074440141        5.2824884671
  C        14.2607553904        9.6487300723        2.8435925503
  C        14.2561842373        9.6566983893        1.4218882366
  C        13.7431015158       10.7588449566        0.6679572933
  C        49.1264961652       21.2334726069        5.8797211329
  C        48.5496068697       22.4012035475        5.1525588216
  C        49.2997271127       23.0687369485        4.1717609260
  C        48.7327630113       24.1078202118        3.4385398129
  C        47.4021128611       24.5092194771        3.6669636689
  C        46.6710168501       23.8600830730        4.6802021734
  C        47.2335065781       22.8152181772        5.4095812153
  C        46.7719494345       25.5869401963        2.8696788013
  C        46.7611332607       25.5574032985        1.4479200050
  C        47.2610705481       24.4422978346        0.7044514324
  C        14.8600915806        8.5703359783        0.7086295528
  C        14.8914310302        8.5967088884        3.5202365996
  C        49.1129467926       21.2035487613       10.1453631734
  C        48.5275713752       22.3648486879       10.8724646787
  C        49.2668437634       23.0257271650       11.8652470152
  C        48.6904602107       24.0602354413       12.5967043759
  C        47.3599560697       24.4567977134       12.3586014662
  C        46.6394738576       23.8117029202       11.3352477430
  C        47.2130800929       22.7758386938       10.6034553549
  C        46.7215254785       25.5317718707       13.1496115980
  C        46.7333845021       25.5282036090       14.5713069896
  C        47.2488199155       24.4289944660       15.3276921678
  C        40.6330788781       17.1174087378       15.3261424228
  C        40.6538239437       17.1581238268       12.5172586503
  C        11.8827740394       14.0863569555       10.2854389387
  C        12.4719324437       12.9103177037       10.9895303488
  C        11.7145296676       12.1775687626       11.9160818187
  C        12.2809911139       11.0950585153       12.5845362529
  C        13.6195967685       10.7208121772       12.3523203269
  C        14.3573734970       11.4358080621       11.3909294994
  C        13.7920648829       12.5170207410       10.7182106481
  C        14.2532272139        9.6241223119       13.1227879176
  C        14.2522005605        9.6442440093       14.5446310552
  C        13.7424807860       10.7532638878       15.2917021210
  C        22.5115543104        3.2438123980        5.7520617427
  C        23.2265378108        4.3474225510        5.0495365007
  C        24.2214218453        4.0635792895        4.1022426580
  C        24.8506695449        5.1003642779        3.4179892147
  C        24.5005922488        6.4433989595        3.6607246773
  C        23.5331181658        6.7187186700        4.6443938252
  C        22.8994134631        5.6837039494        5.3272376433
  C        25.1096961740        7.5483825841        2.8852327309
  C        25.0847003682        7.5428260437        1.4634303038
  C        24.3850338755        6.5437072932        0.7149935228
  C        38.2968593741       31.9275933349        5.8529041249
  C        37.5530712314       30.8389047714        5.1544675262
  C        36.5864209921       31.1454819678        4.1840546020
  C        35.9549629306       30.1273581982        3.4746835758
  C        36.2746940671       28.7759122707        3.7117433635
  C        37.2095781453       28.4768404623        4.7210129694
  C        37.8449693439       29.4938799992        5.4299726947
  C        35.6670818743       27.6871448235        2.9112755075
  C        35.7113332346       27.7020365104        1.4895560380
  C        36.4219605866       28.7055317860        0.7580755917
  C        25.7078555789        8.6142338524        0.7455992399
  C        25.7079881049        8.6213587804        3.5577156727
  C        38.3311055178       31.9607185177       10.1612809136
  C        37.6166248425       30.8879204306       10.9125553753
  C        36.6834649108       31.1971762726       11.9143725923
  C        36.0754366997       30.1802185887       12.6486189112
  C        36.3855446826       28.8267562089       12.4060836011
  C        37.3001284181       28.5274787572       11.3773140170
  C        37.9096762171       29.5408412680       10.6438764108
  C        35.7722415477       27.7274074202       13.1880561739
  C        35.7646156925       27.7228723800       14.6108468921
  C        36.4457402709       28.7167848423       15.3814535510
  C        46.1354381409       26.6208810331       15.2814179698
  C        46.0874668324       26.5800441217       12.4735316492
  C        22.4637251677        3.2556663021       10.2565371657
  C        23.1649655598        4.3630451573       10.9760856019
  C        24.1722202229        4.0738225482       11.9105508842
  C        24.8070282028        5.1016458193       12.6041073325
  C        24.4548701457        6.4486091619       12.3860949890
  C        23.4709094280        6.7312372454       11.4197691975
  C        22.8317097305        5.7036302481       10.7264161109
  C        25.0887188479        7.5449907617       13.1614257913
  C        25.0743783305        7.5408519031       14.5843185508
  C        24.3782132520        6.5439004922       15.3380172914
  C        26.5636010545       17.8306271560        5.7773204998
  C        25.2642184414       17.8879679095        5.0541920695
  C        25.0207150622       18.8821587025        4.0936312082
  C        23.8119534209       18.9078352171        3.4029929400
  C        22.8150771350       17.9427883849        3.6511586212
  C        23.0544396095       16.9731766245        4.6428959345
  C        24.2641907477       16.9418173730        5.3320045252
  C        21.5492856617       17.9302277696        2.8804693598
  C        21.5573710027       17.9152510539        1.4585280945
  C        22.7662751828       17.7929254604        0.7031258430
  C        34.4386761265       17.1942601478        5.9263140636
  C        35.7298773523       17.1492238767        5.1812133135
  C        35.9322474130       16.1831691473        4.1829799603
  C        37.1117521978       16.1703091829        3.4444949480
  C        38.1221161853       17.1212792638        3.6856664471
  C        37.9224267141       18.0685135765        4.7079643717
  C        36.7390050982       18.0880469660        5.4427044714
  C        39.3767325803       17.1254713133        2.8999525072
  C        39.3738066439       17.1393729748        1.4781926707
  C        38.1681796906       17.2705214985        0.7199739117
  C        20.3136861308       17.9374222812        0.7465213778
  C        20.3232455850       17.9269343479        3.5590130056
  C        34.4840132209       17.2548951542       10.1810632825
  C        35.7791816259       17.1794490481       10.9083789135
  C        35.9819422811       16.2042063460       11.8965894179
  C        37.1675010481       16.1824147170       12.6245059992
  C        38.1767855401       17.1348832249       12.3845621743
  C        37.9787190480       18.0856960079       11.3657145213
  C        36.7915579635       18.1132500852       10.6398043388
  C        39.4224190275       17.1479361439       13.1809747458
  C        39.3967553193       17.1528147266       14.6021923517
  C        38.1790544521       17.2762518023       15.3430910123
  C        35.1293357841       26.6425256699       15.3097943509
  C        35.1917306796       26.6539612153       12.4999281235
  C        26.5572079107       17.8451476583       10.3109514350
  C        25.2392893188       17.9033212188       11.0022962564
  C        24.9872120629       18.9000590991       11.9577674480
  C        23.7738594802       18.9244318312       12.6385095920
  C        22.7844429603       17.9532077145       12.3860766751
  C        23.0299554875       16.9844601491       11.3959109850
  C        24.2442664237       16.9563071034       10.7142177496
  C        21.5232812523       17.9320394568       13.1604976337
  C        21.5437787844       17.9153267178       14.5816929426
  C        22.7594022028       17.7933194495       15.3267183726
  C        14.0448245073       17.8320372761       10.2838870875
  C        15.3511590617       17.8969731363       11.0014788907
  C        15.6087586635       18.9098972370       11.9378336954
  C        16.8192345459       18.9370521323       12.6266210968
  C        17.8027967529       17.9540476917       12.3991611223
  C        17.5510090116       16.9664167459       11.4289066532
  C        16.3400037514       16.9348284631       10.7416522712
  C        19.0691679124       17.9387146454       13.1690684336
  C        19.0623534489       17.9293699124       14.5906003003
  C        17.8517148970       17.8279787136       15.3455324117
  C        46.8057565287       17.2188332851       10.1595929431
  C        45.5178045372       17.1574041002       10.9075405138
  C        45.3130313175       16.1774963663       11.8912182736
  C        44.1332532585       16.1592422647       12.6301410016
  C        43.1290366787       17.1215613704       12.4077652248
  C        43.3314093065       18.0815240551       11.3977155212
  C        44.5114703832       18.1032212406       10.6591812663
  C        41.8768375209       17.1331122439       13.1971529876
  C        41.8809187916       17.1246215598       14.6190224739
  C        43.0895405825       17.2074251351       15.3794386175
  C        20.3064340569       17.9366162541       15.3023449453
  C        20.2937806146       17.9229947735       12.4900497601
  C        46.7850048857       17.2293032317        5.8914936596
  C        45.4805059577       17.1189973678        5.1807538406
  C        45.2608969817       16.1160011978        4.2244867360
  C        44.0722497378       16.0864809449        3.4996848400
  C        43.0746053172       17.0570119547        3.7146166058
  C        43.2836443094       18.0283515732        4.7113343108
  C        44.4733047025       18.0642350736        5.4311918975
  C        41.8301416215       17.0815197587        2.9159944247
  C        41.8573245875       17.0963050263        1.4952739223
  C        43.0783502444       17.1914793389        0.7560329333
  C        46.1531965568       26.6373142497        0.7261639432
  C        46.1619168660       26.6560018890        3.5358093295
  C        14.0403138821       17.8280700922        5.7059767090
  C        15.3547962364       17.8960510517        5.0052808764
  C        15.6253150664       18.9164245700        4.0816738098
  C        16.8495291716       18.9522707262        3.4188617431
  C        17.8281711941       17.9666566655        3.6553956610
  C        17.5633011436       16.9721939188        4.6140158157
  C        16.3412417333       16.9360973730        5.2805990548
  C        19.0945925722       17.9467078855        2.8875958474
  C        19.0757905774       17.9323522645        1.4664893853
  C        17.8583097682       17.8290283663        0.7218053664
  C        28.8026432906       14.0997492855       10.3909546690
  C        28.2102003080       12.9147456991       11.0676505628
  C        28.9205574553       12.2174137124       12.0566765188
  C        28.3292104176       11.1382186684       12.7082004557
  C        27.0128189545       10.7358230776       12.4006691901
  C        26.3285999196       11.4133936865       11.3746913270
  C        26.9173728876       12.4902904792       10.7185363250
  C        26.3424368673        9.6581188854       13.1626507052
  C        26.3165893692        9.6896494256       14.5839625148
  C        26.8030508788       10.8085618682       15.3319767576
  C        32.1948835905       21.2423753723       10.1470243624
  C        32.7900144910       22.4008043476       10.8709714028
  C        32.0433346727       23.0738767535       11.8508330520
  C        32.6136775656       24.1134129595       12.5784409880
  C        33.9464032519       24.5080505257       12.3499839373
  C        34.6754234100       23.8525165916       11.3392769989
  C        34.1079232808       22.8077811964       10.6121489492
  C        34.5717727055       25.5832882698       13.1540865211
  C        34.5501323445       25.5554658971       14.5762743557
  C        34.0407575586       24.4381155132       15.3105820124
  C        25.7071265466        8.6098404200       15.3006324964
  C        25.7110808734        8.6040923933       12.4877229407
  C        32.0735181047       21.1937260899        5.8757158147
  C        32.6429770449       22.3558340785        5.1320400938
  C        31.9178688468       22.9903427236        4.1116249765
  C        32.4915325288       24.0321382855        3.3843464567
  C        33.8041162997       24.4682280415        3.6552811303
  C        34.5096369490       23.8458661336        4.7036289134
  C        33.9416285013       22.8015047514        5.4273230362
  C        34.4474294601       25.5533754321        2.8767226761
  C        34.4854782047       25.5409924814        1.4542766214
  C        34.0086269634       24.4317260702        0.6871940878
  C        40.6208571558       17.1065907631        0.7706239725
  C        40.5992624627       17.1139545324        3.5803025922
  C        28.7493586580       14.0562898527        5.8100230117
  C        28.1386976395       12.9123516909        5.0776976029
  C        28.8684751134       12.2306786861        4.0913943464
  C        28.2876571305       11.1746520538        3.3943416767
  C        26.9615353054       10.7743581435        3.6567183539
  C        26.2500940027       11.4436615012        4.6702509538
  C        26.8286839797       12.5002868777        5.3699910743
  C        26.3189016996        9.6860709456        2.8824324711
  C        26.3068065197        9.7030282109        1.4605059539
  C        26.7975603922       10.8158079014        0.7079741155
  C        18.1353692764        3.1807842043       10.3170823204
  C        17.4058102868        4.2779930295       11.0155949815
  C        16.3903067872        3.9994701762       11.9432907362
  C        15.7424637797        5.0393449577       12.6068544245
  C        16.0940358400        6.3831230860       12.3670413017
  C        17.0831149703        6.6527970393       11.4030045365
  C        17.7323221105        5.6155646696       10.7378933254
  C        15.4696971921        7.4907825813       13.1301266492
  C        15.4851506820        7.4902132367       14.5518412364
  C        16.1867381889        6.4966259344       15.3050188168
  C        42.9457572540       31.8594543109       10.0728005533
  C        43.6460557265       30.7718076278       10.8167398728
  C        44.5917744784       31.0930982513       11.8026485090
  C        45.1974336685       30.0875346885       12.5503058777
  C        44.8707728013       28.7344996347       12.3356087149
  C        43.9447400988       28.4201832244       11.3225798166
  C        43.3359812045       29.4253415409       10.5745220439
  C        45.4883782040       27.6552284011       13.1388041727
  C        45.4926987348       27.6809789928       14.5604910400
  C        44.8056876265       28.6890887309       15.3070979830
  C        14.8562548369        8.5627600959       15.2641914558
  C        14.8742752289        8.5624676886       12.4515321140
  C        42.9463428298       31.9614888032        5.8089279106
  C        43.6914348449       30.8854065738        5.0953769266
  C        44.6564051444       31.1913039576        4.1234320469
  C        45.2778896464       30.1717110182        3.4057029415
  C        44.9536851249       28.8214274267        3.6429651676
  C        44.0197233888       28.5237615647        4.6532916502
  C        43.3914839662       29.5405292686        5.3654748671
  C        45.5627734616       27.7240570341        2.8577316818
  C        45.5332389721       27.7174757270        1.4364407525
  C        44.8269824398       28.7077485248        0.6834888624
  C        35.0991309086       26.6336546574        0.7553326808
  C        35.0512115474       26.6138288948        3.5654727088
  C        18.1485671439        3.2468040128        5.7067356404
  C        17.4297970693        4.3436459530        4.9975020546
  C        16.4146574330        4.0522949645        4.0738886184
  C        15.7663098665        5.0828671205        3.3984208688
  C        16.1208318879        6.4281322303        3.6211558423
  C        17.1120911630        6.7115908800        4.5785164684
  C        17.7597963759        5.6827418687        5.2583519659
  C        15.4903496089        7.5238148536        2.8486661068
  C        15.4962941525        7.5072234111        1.4275269738
  C        16.1930118440        6.5054882090        0.6808338755
  H        10.6724653934       12.4662354827        3.9039271200
  H        11.6945702339       10.5513469896        2.6620800728
  H        15.3909958090       11.1674411665        4.7730896599
  H        14.3505023001       13.0702609757        6.0184245412
  H        13.3760977266       11.6309832427        1.2012486520
  H        50.3225206395       22.7488882425        3.9871971958
  H        49.3192823114       24.6232806580        2.6811226499
  H        45.6414014253       24.1605881954        4.8631287078
  H        46.6623491406       22.2897686146        6.1714238026
  H        47.6294698511       23.5758630281        1.2461380802
  H        14.8715873904        8.5878496832        4.6085400085
  H        50.2869547522       22.7030339727       12.0600500185
  H        49.2688357473       24.5758167318       13.3601327215
  H        45.6099678032       24.1087091521       11.1463650356
  H        46.6521695565       22.2535415219        9.8320478366
  H        47.6074708839       23.5518143725       14.7968099341
  H        40.6606565348       17.1300830543       11.4293408557
  H        48.6870528668       14.0948007596        7.8000721749
  H        10.6812130336       12.4670168912       12.0937909188
  H        11.6892297980       10.5249965746       13.2975272634
  H        15.3925937545       11.1574148454       11.2045778030
  H        14.3642286566       13.0859541552        9.9892028014
  H        13.3756085353       11.6218505329       14.7530530493
  H        47.9301182137       14.2180055030        9.7106759229
  H        47.7800278332       14.3733824296        6.4952286469
  H        49.0831267027       18.5523975964       10.8673134385
  H        10.4156724517       14.1342393178        7.9986241526
  H        24.4795525014        3.0240209231        3.9128980371
  H        25.6228789975        4.8795994052        2.6842413535
  H        23.2550135574        7.7526651504        4.8378667483
  H        22.1306196457        5.8870878518        6.0687169989
  H        23.8227084289        5.7863921015        1.2534514612
  H        36.3549904769       32.1895477321        3.9868253062
  H        35.2068373754       30.3704369514        2.7232940336
  H        37.4643710169       27.4366254935        4.9132455758
  H        38.5925371349       29.2686736758        6.1869855165
  H        36.9793914394       29.4574877007        1.3088931652
  H        25.7440244067        8.6011569650        4.6454382668
  H        36.4535018176       32.2413078184       12.1143113149
  H        35.3449179252       30.4275637430       13.4157134847
  H        37.5540287742       27.4874768439       11.1831347473
  H        38.6360252355       29.3126323133        9.8676160776
  H        37.0222226007       29.4770145967       14.8621391127
  H        46.1086825041       26.5873184417       11.3854913341
  H        44.6681602379       35.1159998754        7.8139682088
  H        24.4481035355        3.0347026871       12.0753229965
  H        25.5909044469        4.8696697304       13.3219980307
  H        23.1868981259        7.7665763118       11.2424835495
  H        22.0562425688        5.9195344123        9.9950389525
  H        23.8105073249        5.7870590459       14.8045084000
  H        44.9534925833       34.3901194135        9.6949333951
  H        44.9015075610       34.2067269119        6.4905419901
  H        40.6657919022       33.2088174705       10.8530567750
  H        23.1508161281        1.9571834793        8.0046903735
  H        25.7882377286       19.6285107655        3.9021472713
  H        23.6251075625       19.6831131225        2.6631397453
  H        22.2941372942       16.2204880338        4.8409178501
  H        24.4628094911       16.1787898746        6.0806695733
  H        23.7053897001       17.6670267892        1.2342674321
  H        35.1478644283       15.4543022068        3.9941234318
  H        37.2666811001       15.4142741612        2.6778601778
  H        38.6943394151       18.8116548227        4.8971150090
  H        36.5680786416       18.8346441419        6.2148515444
  H        37.2289435096       17.3998411376        1.2502290978
  H        20.3259720645       17.9618949327        4.6469890258
  H        35.1914153827       15.4838114849       12.0930675926
  H        37.3249493882       15.4238949309       13.3880410338
  H        38.7520807018       18.8274749251       11.1774697210
  H        36.6166356956       18.8643436906        9.8731123945
  H        37.2477555913       17.4097054652       14.8001156669
  H        35.1748662766       26.6793450741       11.4119789822
  H        28.5061836713       21.1052628039        7.8630050740
  H        25.7559256895       19.6445911099       12.1519745053
  H        23.5778944572       19.6996125485       13.3761239041
  H        22.2727973332       16.2291809346       11.1956306655
  H        24.4516776391       16.1933559139        9.9677935018
  H        23.6931719367       17.6682736640       14.7865252602
  H        29.0035609808       21.8228580507        9.7287266675
  H        29.2036600766       21.6892924366        6.5312646692
  H        32.0284173417       18.5336814213       11.0166804838
  H        27.3735758788       18.9912075622        8.0811890920
  H        14.8495479002       19.6693343406       12.1106572287
  H        17.0177167673       19.7264718666       13.3483818704
  H        18.3024514190       16.2009276019       11.2466047088
  H        16.1304040512       16.1598044320       10.0083251851
  H        16.9114433551       17.7172127494       14.8133740787
  H        46.0953851317       15.4435404580       12.0694557860
  H        43.9743862292       15.3910589406       13.3837383855
  H        42.5640212719       18.8326184008       11.2223246678
  H        44.6840638221       18.8583129884        9.8958658662
  H        44.0326881678       17.3167031902       14.8517486893
  H        20.2901237096       17.9576709768       11.4020909835
  H        46.0377991470       15.3751821109        4.0499021190
  H        43.9042348381       15.3090492254        2.7575637485
  H        42.5173749277       18.7812897106        4.8834828521
  H        44.6571334982       18.8335221083        6.1771219128
  H        44.0130037374       17.2873579666        1.3009278563
  H        46.1984985780       26.6824231797        4.6232657304
  H        52.7410342465       21.0625858184        8.1946376702
  H        14.8668717821       19.6750406082        3.9016086373
  H        17.0613787950       19.7468195304        2.7066202538
  H        18.3115989351       16.2047880312        4.8010506304
  H        16.1195301537       16.1576505321        6.0065815504
  H        16.9229908881       17.7190345083        1.2624426978
  H        52.3222023759       21.6735100847        6.2947088457
  H        52.0131644056       21.7022453443        9.4954998118
  H        49.0667793828       18.6076748925        5.2045451361
  H        13.2469053583       19.0166876943        7.9756748934
  H        29.9287220721       12.5402890559       12.3071420413
  H        28.8822752145       10.5961088101       13.4720194939
  H        25.3122431323       11.1132993333       11.1281775443
  H        26.3825490592       13.0354805848        9.9448746802
  H        27.1556898691       11.6837652218       14.7948460407
  H        31.0208416256       22.7563623298       12.0400507215
  H        32.0291708637       24.6333226919       13.3342351817
  H        35.7070409810       24.1464279638       11.1567423781
  H        34.6774257290       22.2775125725        9.8522670245
  H        33.6996150462       23.5639687701       14.7633367818
  H        25.7495212669        8.5806959236       11.4000500703
  H        30.9107481089       22.6443785775        3.8894685744
  H        31.9208603074       24.5230047072        2.5990278161
  H        35.5259698600       24.1681931457        4.9203424674
  H        34.4951747120       22.3004671963        6.2178062006
  H        33.6424338020       23.5526885683        1.2099974759
  H        40.5912224159       17.0767588541        4.6679645258
  H        32.5217591233       14.1214419920        8.2162134835
  H        29.8900196113       12.5435411686        3.8878024425
  H        28.8607422624       10.6423898547        2.6383107154
  H        25.2241311849       11.1479093865        4.8794800917
  H        26.2737939160       13.0327715259        6.1385922590
  H        27.1449682347       11.6961794393        1.2409104535
  H        33.3087243868       14.2371870376        6.4703844857
  H        33.4588655541       14.2350548362        9.5933098462
  H        32.0244792850       18.4195587386        5.1261205683
  H        30.1896512355       14.2044191665        8.1704253084
  H        16.1185112304        2.9629139704       12.1298058162
  H        14.9531655479        4.8197986850       13.3226341669
  H        17.3651826656        7.6857393685       11.2097239634
  H        18.5140961660        5.8182893889       10.0097842577
  H        16.7531779205        5.7391975881       14.7715204591
  H        44.8282133464       32.1401568809       11.9767345425
  H        45.9374314014       30.3412213809       13.3061416893
  H        43.6818010682       27.3781460115       11.1526421233
  H        42.5992236675       29.1899955728        9.8099951645
  H        44.2302724413       29.4368106850       14.7687966985
  H        14.8502619903        8.5455357021       11.3633192452
  H        44.9002558838       32.2339608158        3.9322622930
  H        46.0250853059       30.4128748968        2.6527339761
  H        43.7622996917       27.4840690651        4.8444427840
  H        42.6445553637       29.3177001474        6.1234872696
  H        44.2684395352       29.4706117709        1.2180714982
  H        34.9971780076       26.6278845265        4.6524519256
  H        36.6051445383       35.1339886548        8.1806163522
  H        16.1436750227        3.0126913261        3.9041453294
  H        14.9740349522        4.8559186971        2.6883092313
  H        17.3954314053        7.7470955374        4.7554466781
  H        18.5425708563        5.8932172665        5.9832144125
  H        16.7643613449        5.7551906469        1.2192820242
  H        36.2788721755       34.4821270876        6.2733778965
  H        36.3806473406       34.2091192323        9.4996398740
  H        40.5782340626       33.2013366621        5.1541612489
  H        17.4710935200        1.9471461302        7.9740404107
  H        29.0874314064       19.3595577331       12.5137435612
  H        28.8158175650       18.8043750130        3.7454121815
  H        31.7853419750       15.7511068415        3.5643369360
  H        31.0245324962       15.6098339905       12.4883650491
  H        28.0593542338       18.0305332439       14.6013962000
  H        29.2345144871       15.2772816823       14.5201751895
  H        32.4536726938       17.3453878025        1.2897360669
  H        18.8529262380        0.8687015110       12.3353142593
  H        40.5280503901       35.2292314356        3.9522050831
  H        42.3228904354       34.4178820879        3.5912605138
  H        22.0878646272        0.6921553535       12.3514277436
  H        11.5965557462       18.7133824768       12.3828057843
  H        52.2641861848       18.4312433942        3.6769006657
  H        49.2551118873       16.4767769325        3.5843835482
  H        10.1509515179       15.7981871230       12.2924880756
  H        50.8494461787       17.6923765618        3.9541926795
  H        10.0463216841       17.3945765410       12.0520201609
  H        20.2141775659        0.0021847116       12.0420967466
  H        39.1834422825       36.1242859011        3.6861784003
 Ni        30.5698108614       17.6361748009        2.6669534703
 Ni        30.9833903333       16.2771486793       -0.2480753526
 Ni        29.7202036284       18.2337172164        0.2486617835
 Ni        30.1861030785       17.5215861234       13.4872638559
  O        10.6498709844       14.3650838635        5.4857581222
  O        12.6130931319       14.6574051847        6.5838192729
  O        49.1479299162       16.8459807542        7.9897367482
  O        50.3500886724       20.9363544479        5.6482550657
  O        48.3484828729       20.5933298910        6.6659465033
  O        11.0510509444       17.0541383735        6.5005290751
  O        50.3208294340       20.8817489841       10.4068467975
  O        48.3466893737       20.5867595829        9.3271029010
  O        49.5434851547       18.2484648365       10.0683698515
  O        12.3586567218       18.6246238771        7.9996290157
  O        48.6932720816       14.1484834379        6.7513390438
  O         8.2098934936       14.2102880844        9.3224961124
  O        10.7353013902       14.5066441716       10.6643557928
  O        12.5717609465       14.5827119867        9.3285368909
  O        22.8445063064        2.0426476097        5.4871638198
  O        21.6060592224        3.5926641718        6.5891457732
  O        42.0578503865       34.1370798066        7.9789439212
  O        37.9811907712       33.1365208618        5.5724800154
  O        39.2173075999       31.5752871245        6.6658362955
  O        20.3084481222        1.0397970583        6.5019963408
  O        38.0246115254       33.1851756634       10.4156714197
  O        39.2184565583       31.5831812919        9.3274213944
  O        40.6521140393       33.7691398771       10.0601629735
  O        18.2559648032        1.3762286786        7.9967886410
  O        44.6221993429       35.1005350742        6.7587526563
  O        24.2053908923        0.0000713808        9.3208169305
  O        22.7532484015        2.0574103189       10.5838149217
  O        21.6252380517        3.5968169941        9.3439445334
  O        27.4615959769       18.6941051890        5.4900401964
  O        26.6902214339       16.9157901120        6.6654947481
  O        30.6284843057       19.3414334934        8.0697403856
  O        33.5900396146       16.2727229584        5.6802512355
  O        34.2663684240       18.1705404583        6.7402323193
  O        29.5332675436       17.0012790760        6.5891816865
  O        33.6262075007       16.3276930387       10.4087279475
  O        34.3044235438       18.2465554673        9.4030454554
  O        31.6484589358       18.3083187581       10.1491217289
  O        30.3193787385       15.1670006345        8.1551970001
  O        28.5496479507       21.0273030846        6.8261204896
  O        28.5472138772       21.0273069172        9.4077602961
  O        27.4534382959       18.6842602962       10.6548642231
  O        26.6939627776       16.9272401386        9.4153050331
  O        13.1465378176       18.6938369372       10.5862839190
  O        13.9181784925       16.9160437712        9.4040126329
  O        50.5959232180       19.3503668331        8.0205528049
  O        47.6840322844       16.3266976221       10.4170590068
  O        46.9517158361       18.1756673367        9.3248814342
  O        11.0693393073       17.0157399959        9.4897167951
  O        47.6767751546       16.3353331303        5.6535596201
  O        46.9274809301       18.2356232455        6.6646273919
  O        49.5688709132       18.3178386304        5.9822425991
  O        10.3185932899       15.1001181606        7.9970608984
  O        52.6707000740       21.0279931042        9.2418266162
  O        12.1468420622       20.8913400356        6.6732246325
  O        13.1057001059       18.6141133508        5.3259656995
  O        13.9556394296       16.9865204439        6.6653435395
  O        29.9651878980       14.4988440617       10.7412750394
  O        28.0788960712       14.6582014153        9.4904329013
  O        32.0714825789       16.8619618427        8.0889453957
  O        30.9730203411       20.9599082221       10.4085864028
  O        32.9467438628       20.6009143966        9.3346704907
  O        29.4794733469       17.0531449128        9.7490243214
  O        30.8456878434       20.8803956940        5.6606666875
  O        32.8657848302       20.5814980420        6.6676629587
  O        31.6208369720       18.2490340745        5.9963083812
  O        28.2709139871       18.6201609167        8.0763583968
  O        32.5272346368       14.1498802532        9.3235467474
  O        32.4059554561       14.2140272645        6.8313963525
  O        29.9179273934       14.4331521115        5.4935120698
  O        28.0366159265       14.5825094353        6.7483435981
  O        17.8892260826        1.9665305800       10.6627851649
  O        18.9563068025        3.5271399933        9.4080050898
  O        39.1686168686       34.1386716931        7.9970605623
  O        43.2801900500       33.0589326593       10.3316602670
  O        42.0343497757       31.5064785323        9.2415771985
  O        20.3175956200        1.0366193588        9.4801785457
  O        43.2760554692       33.1825400214        5.5748837883
  O        42.0051950368       31.5841081030        6.5829994718
  O        40.5789274987       33.7749906841        5.9355918684
  O        22.3672158989        1.3846348098        7.9979664516
  O        36.6728045527       35.0996888610        9.2332832050
  O        16.4456741712        0.0642094167        6.6682702822
  O        17.9364196294        2.0432774131        5.3264454055
  O        18.9191714675        3.5931267295        6.6659371759
  O        29.7238870823       18.6901401239        4.0798062048
  O        29.7803885294       18.9096984484       11.9919324772
  O        31.3819704291       16.4175544586        4.1481050201
  O        31.2981482678       16.4153880551       11.9970716360
  O        31.7265053682       16.7089471745        1.4189600917
  O        30.1309909598       15.5455474877       14.2498133423
  O        28.8891828154       18.5423167763       14.5797079072
  O        39.4568104198       35.2438389310        4.0019916312
  O        19.1410471599        0.0043245666       11.9905578527
  O        41.9696612601       35.1728085570        4.0871495541
  O        21.6913436457       -0.0691903207       11.8957977177
  O        51.3644965671       18.6143051884        4.0052695479
  O        10.7509156818       18.7473499881       11.9050363100
  O        50.0795424194       16.4127922972        4.0917010820
  O         9.5249358263       16.4829927226       11.9912230830
 Zr         9.2963141962       16.0528077964        6.1823067507
 Zr        49.8358506644       16.0067326025        9.7465316175
 Zr        22.0729955243        0.0291770728        6.1891323286
 Zr        42.4606870861       35.1529134149        9.8008407127
 Zr        29.5789311352       19.0439327202        6.2407317698
 Zr        29.5862011886       19.2909385407        9.8882632862
 Zr        11.0369864705       19.0523895015        9.8276244090
 Zr        11.0429777159       19.1552580988        6.2511496429
 Zr        31.4699092325       16.0542738078        9.9216734663
 Zr        31.3780090549       16.0040581423        6.2498024382
 Zr        18.6008013299       -0.0021273868        9.7633362532
 Zr        18.5064464038       -0.0082030898        6.2134779134
 Zr        12.3003856205       16.3233635114        7.9903768475
 Zr        48.6159147408       18.8331046027        8.0102352162
 Zr        20.3152235146        2.4730928755        7.9908172611
 Zr        40.6426383060       32.6861582936        7.9779434721
 Zr        28.2871827068       16.2983255667        8.0251770194
 Zr        32.6174325408       18.8325665875        8.0518624665
  H        29.3390986640       18.0287240936        1.7290421479
  H        29.0501004929       16.8242933298       10.5970968183
  H        31.1711583483       17.5967912696       14.8398797225
