     563
 i =      130, E =     -4694.9782364991
  C        11.8586396255       14.0535107210        5.7415695678
  C        12.4561584916       12.8905597054        5.0231719725
  C        11.7045258676       12.1716879128        4.0814314587
  C        12.2809193845       11.1094627038        3.3891030501
  C        13.6214637969       10.7395817093        3.6168981856
  C        14.3545804937       11.4431578296        4.5904027971
  C        13.7816762621       12.5081346758        5.2819142721
  C        14.2609634408        9.6488492613        2.8435336584
  C        14.2561016546        9.6566354498        1.4218234970
  C        13.7429745637       10.7587716887        0.6679095817
  C        49.1265469371       21.2333198985        5.8798387551
  C        48.5496108840       22.4011078824        5.1526947277
  C        49.2997140078       23.0685572770        4.1718324286
  C        48.7327569393       24.1076296051        3.4385712006
  C        47.4021306933       24.5090948582        3.6670000796
  C        46.6710856384       23.8600729297        4.6803577919
  C        47.2335600241       22.8152238336        5.4097843758
  C        46.7719439916       25.5868047432        2.8696929406
  C        46.7611374959       25.5573104663        1.4479228743
  C        47.2612283539       24.4423004206        0.7044111765
  C        14.8598224302        8.5701659955        0.7085592679
  C        14.8918003926        8.5969202030        3.5201754028
  C        49.1129978482       21.2034498371       10.1452918618
  C        48.5276280112       22.3648612534       10.8723294609
  C        49.2669206602       23.0255987656       11.8651955079
  C        48.6906378737       24.0601711845       12.5966589821
  C        47.3602160126       24.4569539587       12.3584721403
  C        46.6397695904       23.8120655714       11.3349566576
  C        47.2132642495       22.7761249224       10.6031618069
  C        46.7217789541       25.5318894506       13.1495592395
  C        46.7335347447       25.5282440010       14.5712698723
  C        47.2490460716       24.4290608299       15.3276463058
  C        40.6002014081       17.0608929547       15.2920548377
  C        40.5939889567       17.0540419185       12.4810864980
  C        11.8826963383       14.0864454660       10.2855108619
  C        12.4717522262       12.9104034909       10.9896394835
  C        11.7141902656       12.1774656850       11.9159187780
  C        12.2805810775       11.0949006402       12.5843375971
  C        13.6192580974       10.7207792076       12.3523282359
  C        14.3572587420       11.4360612374       11.3913332629
  C        13.7920277153       12.5173457238       10.7186535656
  C        14.2527529923        9.6239544645       13.1227458968
  C        14.2517515051        9.6440289307       14.5445916472
  C        13.7421877885       10.7531223927       15.2916549360
  C        22.5040119123        3.2436619157        5.7436633286
  C        23.2011155825        4.3468234902        5.0221196115
  C        24.1964431623        4.0637085873        4.0750486838
  C        24.8160963654        5.0999814473        3.3809949584
  C        24.4561329590        6.4423252994        3.6134185116
  C        23.4824803786        6.7169490180        4.5913366644
  C        22.8588863998        5.6825184920        5.2842444899
  C        25.0718361765        7.5480147607        2.8439845944
  C        25.0763667648        7.5404663654        1.4222554140
  C        24.3903434709        6.5418538747        0.6609160306
  C        38.2979773476       31.9276807915        5.8513076762
  C        37.5564412096       30.8396515201        5.1490835487
  C        36.5904459098       31.1478396812        4.1784634210
  C        35.9590054918       30.1310913215        3.4670748074
  C        36.2778923544       28.7791034254        3.7022459764
  C        37.2135431948       28.4783862208        4.7103896897
  C        37.8488540509       29.4941080229        5.4214741940
  C        35.6657272895       27.6916205359        2.9033466148
  C        35.7038300132       27.7062400443        1.4814554966
  C        36.4158838385       28.7069576755        0.7477396731
  C        25.7165929240        8.6093252889        0.7158331298
  C        25.6558649605        8.6226761955        3.5272262222
  C        38.3296934714       31.9600509089       10.1603101784
  C        37.6120571746       30.8868425189       10.9086794316
  C        36.6774764181       31.1959439751       11.9092945391
  C        36.0664235573       30.1788973703       12.6409677415
  C        36.3746400435       28.8250710106       12.3975101867
  C        37.2899972741       28.5259385350       11.3693429340
  C        37.9026655353       29.5394919383       10.6384194459
  C        35.7591977431       27.7267004467       13.1797203098
  C        35.7515632660       27.7241220072       14.6025530307
  C        36.4371045850       28.7166360374       15.3710724381
  C        46.1354475272       26.6208320633       15.2814206772
  C        46.0877144484       26.5801954566       12.4735280241
  C        22.4745510325        3.2580644971       10.2504133261
  C        23.1985717947        4.3654130887       10.9509845205
  C        24.2107986357        4.0741448251       11.8799603114
  C        24.8619688883        5.1008401337       12.5609010528
  C        24.5229945227        6.4507593877       12.3374819799
  C        23.5380444526        6.7352099204       11.3724487419
  C        22.8824975605        5.7086046096       10.6911926976
  C        25.1592843872        7.5439217180       13.1193141913
  C        25.1220368691        7.5372826830       14.5425640572
  C        24.4088514790        6.5425459998       15.2841099364
  C        26.5576687927       17.8268423722        5.7868617759
  C        25.2573886153       17.8832552265        5.0613276189
  C        25.0135125749       18.8784785738        4.1025421947
  C        23.8054884766       18.9049107757        3.4106806276
  C        22.8095822989       17.9388469180        3.6566129873
  C        23.0490250920       16.9671704305        4.6460706375
  C        24.2584532588       16.9358778671        5.3363692073
  C        21.5443930343       17.9290190894        2.8851050429
  C        21.5536795698       17.9143492324        1.4633340293
  C        22.7633897121       17.7871283222        0.7102216091
  C        34.4120928053       17.2267921237        5.8782525912
  C        35.7161425402       17.1617051805        5.1532354672
  C        35.9195132993       16.1924565302        4.1580758417
  C        37.1064146117       16.1662461946        3.4313124397
  C        38.1229492370       17.1114507492        3.6729492315
  C        37.9234776943       18.0590894718        4.6956097733
  C        36.7353547718       18.0877763788        5.4238376296
  C        39.3749077297       17.1149668576        2.8797924353
  C        39.3605222928       17.1112672850        1.4569083312
  C        38.1483481687       17.2280415851        0.7066585688
  C        20.3111055352       17.9412566845        0.7494229521
  C        20.3179073534       17.9288687230        3.5619927728
  C        34.3684735933       17.2029595921       10.2288972138
  C        35.6704783742       17.0952552802       10.9457681966
  C        35.8817769211       16.1252723985       11.9380045642
  C        37.0844103590       16.0904644189       12.6412249891
  C        38.1072038084       17.0234924904       12.3755349273
  C        37.9010874225       17.9637046571       11.3476281062
  C        36.6996012765       18.0039283917       10.6467145307
  C        39.3664947101       17.0428491933       13.1564602906
  C        39.3563431494       17.0733246339       14.5786329065
  C        38.1463145954       17.2077068173       15.3300320423
  C        35.1121637604       26.6473490367       15.3033855662
  C        35.1770300857       26.6529109719       12.4934745300
  C        26.5689375894       17.8265864875       10.3274391860
  C        25.2557088653       17.8791894642       11.0305810453
  C        25.0004463539       18.8786489951       11.9817621169
  C        23.7822671461       18.9088919919       12.6539696485
  C        22.7915967380       17.9401380066       12.3977370928
  C        23.0415138824       16.9664648206       11.4138925570
  C        24.2601999618       16.9335846209       10.7402016118
  C        21.5264251398       17.9254869743       13.1658208117
  C        21.5439693774       17.9113888892       14.5869837325
  C        22.7581524330       17.7855307860       15.3339171227
  C        14.0460789712       17.8324755128       10.2838563033
  C        15.3531266464       17.8985016169       11.0000849936
  C        15.6122591256       18.9131359739       11.9343833954
  C        16.8231291509       18.9409285172       12.6226155875
  C        17.8062903093       17.9566650195       12.3977744514
  C        17.5532185656       16.9678035374       11.4288833780
  C        16.3419987431       16.9357470413       10.7417695412
  C        19.0720030088       17.9405825112       13.1694849617
  C        19.0626819367       17.9349748082       14.5912445075
  C        17.8507726306       17.8392088044       15.3450178431
  C        46.7960863213       17.2119243100       10.1526128193
  C        45.4932165207       17.1296748210       10.8805386191
  C        45.2852421568       16.1424977597       11.8569951640
  C        44.0956842067       16.1047757803       12.5811831104
  C        43.0789670025       17.0536408098       12.3539314427
  C        43.2818346327       18.0167163656       11.3462070739
  C        44.4728088160       18.0585907978       10.6228263504
  C        41.8254866681       17.0551837617       13.1486579739
  C        41.8413155989       17.0692233442       14.5720205349
  C        43.0553461824       17.1763771477       15.3213473433
  C        20.3056178905       17.9389946209       15.3052631593
  C        20.2982268307       17.9192422860       12.4928120692
  C        46.7842069112       17.2348586774        5.8812699849
  C        45.4860133527       17.1350834064        5.1516437336
  C        45.2729235451       16.1408156267        4.1840417305
  C        44.0880939363       16.1133661193        3.4513488214
  C        43.0833854587       17.0772700842        3.6671534588
  C        43.2894293421       18.0447340774        4.6692179546
  C        44.4752268510       18.0782976430        5.3973291043
  C        41.8319804155       17.0903693560        2.8745570429
  C        41.8448873257       17.0865478765        1.4522814215
  C        43.0570649220       17.1815563187        0.6985296327
  C        46.1531448763       26.6372076859        0.7261805283
  C        46.1618919162       26.6558589934        3.5358318333
  C        14.0394937246       17.8285384912        5.7064402731
  C        15.3529595539       17.8981428665        5.0062892296
  C        15.6219948127       18.9201649538        4.0840880009
  C        16.8457157626       18.9576659841        3.4209755957
  C        17.8244732624       17.9719566261        3.6559855920
  C        17.5611098690       16.9760481800        4.6134858871
  C        16.3396957765       16.9382910576        5.2805274633
  C        19.0904227078       17.9526256754        2.8887478339
  C        19.0724414552       17.9403851760        1.4677735059
  C        17.8555997783       17.8415051639        0.7213372598
  C        28.8355071200       14.1602960358       10.4149720184
  C        28.2612427369       12.9774123225       11.1181027717
  C        28.9931784103       12.2406440319       12.0615123525
  C        28.4125665855       11.1409651074       12.6929065025
  C        27.0874785130       10.7517157229       12.4058518248
  C        26.3788725732       11.4718965778       11.4274060272
  C        26.9547182929       12.5695093744       10.7962551648
  C        26.4210555789        9.6543206992       13.1474797181
  C        26.3749652361        9.6802179476       14.5677334958
  C        26.8556065840       10.7959592248       15.3241105028
  C        32.1796541007       21.2329188547       10.1444907923
  C        32.7765811792       22.3994636442       10.8594392398
  C        32.0260820630       23.0779210262       11.8329965671
  C        32.5937493914       24.1176455914       12.5628743599
  C        33.9291010512       24.5087373604       12.3433728212
  C        34.6618523768       23.8496630288       11.3375599369
  C        34.0964009035       22.8045783898       10.6081704517
  C        34.5530688633       25.5849657634       13.1487982885
  C        34.5278013400       25.5615532876       14.5713884447
  C        34.0101836488       24.4496586839       15.3083040848
  C        25.7463230210        8.6029344724       15.2712706443
  C        25.7959403690        8.6044738858       12.4586724176
  C        32.0687129331       21.2042628481        5.8756933453
  C        32.6401167713       22.3691292935        5.1396182745
  C        31.9076788861       23.0113431410        4.1290469409
  C        32.4793324215       24.0516251636        3.3986034328
  C        33.7974795056       24.4787186204        3.6564657089
  C        34.5101258020       23.8499439155        4.6961379052
  C        33.9439623177       22.8066784272        5.4233328885
  C        34.4389758318       25.5619562278        2.8735180551
  C        34.4680543648       25.5505799648        1.4506959949
  C        33.9801160143       24.4449477481        0.6851472876
  C        40.6015122573       17.0751112878        0.7381030445
  C        40.6048908671       17.1202843384        3.5485168124
  C        28.7212766712       14.0593103443        5.7824558757
  C        28.1076926299       12.9083133552        5.0594158646
  C        28.8478920051       12.1906628782        4.1068481327
  C        28.2635240715       11.1349816050        3.4129714415
  C        26.9223265902       10.7696337060        3.6447818827
  C        26.1995006949       11.4711401775        4.6278804358
  C        26.7827092753       12.5278853852        5.3251452996
  C        26.2831409515        9.6840039282        2.8630624392
  C        26.3031677336        9.6975314886        1.4414672232
  C        26.8189139144       10.8058762107        0.6992633684
  C        18.1353728830        3.1808648017       10.3171176376
  C        17.4055822549        4.2779798637       11.0153908179
  C        16.3900190204        3.9993129941       11.9430144461
  C        15.7420246541        5.0390925270       12.6065600558
  C        16.0934651289        6.3829347000       12.3668285613
  C        17.0825484897        6.6527403320       11.4028217300
  C        17.7319567084        5.6156090115       10.7377348191
  C        15.4690560527        7.4905190194       13.1299852925
  C        15.4845249023        7.4898955780       14.5517105008
  C        16.1861320101        6.4963105949       15.3048715618
  C        42.9457463814       31.8595231163       10.0728430524
  C        43.6460683856       30.7718649405       10.8167799801
  C        44.5916128823       31.0931688785       11.8028513325
  C        45.1973005798       30.0876197551       12.5505070101
  C        44.8708422318       28.7345599872       12.3356506042
  C        43.9449764274       28.4202314531       11.3224712437
  C        43.3361787424       29.4253813655       10.5744287788
  C        45.4884716124       27.6552803823       13.1388257333
  C        45.4926736771       27.6809282469       14.5605167354
  C        44.8055173816       28.6889222795       15.3071457377
  C        14.8557692888        8.5624967080       15.2641136266
  C        14.8737325807        8.5622982869       12.4514385084
  C        42.9463412182       31.9614426608        5.8090152640
  C        43.6914523165       30.8853253341        5.0954982532
  C        44.6562206790       31.1911967816        4.1233444323
  C        45.2776629538       30.1715881162        3.4055950209
  C        44.9536375520       28.8212888031        3.6430395373
  C        44.0199136434       28.5236597808        4.6536031764
  C        43.3917132780       29.5404425656        5.3658092946
  C        45.5626795547       27.7239003956        2.8577793967
  C        45.5331006833       27.7173119379        1.4364825408
  C        44.8267590504       28.7075310250        0.6835392324
  C        35.0845961966       26.6401828283        0.7492920726
  C        35.0502179592       26.6195929348        3.5598577764
  C        18.1487458770        3.2468512291        5.7068089773
  C        17.4301186014        4.3437151706        4.9975057662
  C        16.4150587736        4.0524014894        4.0737807785
  C        15.7666780477        5.0829615707        3.3983387272
  C        16.1211196105        6.4282569896        3.6210892706
  C        17.1123120986        6.7117121798        4.5785423045
  C        17.7599959191        5.6828482803        5.2583866258
  C        15.4905271708        7.5238973090        2.8486058082
  C        15.4961259070        7.5071051801        1.4274543175
  C        16.1926449856        6.5052819710        0.6806897284
  H        10.6724162836       12.4658555152        3.9043490996
  H        11.6946375779       10.5510032494        2.6625413003
  H        15.3916088079       11.1685766123        4.7721712665
  H        14.3511049970       13.0713079003        6.0174207164
  H        13.3762230772       11.6310170708        1.2012021293
  H        50.3224953732       22.7486707853        3.9872419285
  H        49.3193000386       24.6230046438        2.6811130459
  H        45.6415154606       24.1606885432        4.8633559504
  H        46.6624763522       22.2898804437        6.1717584429
  H        47.6297912900       23.5759179332        1.2460726716
  H        14.8722577623        8.5882598299        4.6084861780
  H        50.2869621750       22.7027255381       12.0600881483
  H        49.2690774836       24.5756192909       13.3601315729
  H        45.6103562813       24.1093058442       11.1459360552
  H        46.6523480677       22.2539340584        9.8316825317
  H        47.6079267389       23.5519855352       14.7967454744
  H        40.5915036715       17.0112787707       11.3934411228
  H        48.6868945132       14.0953323093        7.7999833737
  H        10.6808272686       12.4668368384       12.0934602400
  H        11.6887391764       10.5247093870       13.2971548399
  H        15.3926052862       11.1579321399       11.2052915983
  H        14.3644403851       13.0865357849        9.9900396289
  H        13.3754498982       11.6217651762       14.7530023196
  H        47.9300259161       14.2191816471        9.7110298253
  H        47.7798209211       14.3737513289        6.4951858386
  H        49.0808661179       18.5510978870       10.8664062001
  H        10.4155252125       14.1344259588        7.9989783175
  H        24.4650280985        3.0250102819        3.8957579414
  H        25.5918053278        4.8793498742        2.6509090678
  H        23.1946698800        7.7499304387        4.7755655906
  H        22.0882149981        5.8858219597        6.0238097785
  H        23.8164680857        5.7857233877        1.1889664064
  H        36.3589484332       32.1922480839        3.9831509326
  H        35.2107484722       30.3757157128        2.7163152796
  H        37.4682496445       27.4378396465        4.9009453033
  H        38.5963046403       29.2673968646        6.1781717134
  H        36.9771214029       29.4574123248        1.2967459056
  H        25.6692613426        8.6044375126        4.6155001333
  H        36.4488160324       32.2401150021       12.1105444263
  H        35.3352007659       30.4265560975       13.4072974377
  H        37.5424477575       27.4858347388       11.1737434885
  H        38.6297016542       29.3109436216        9.8628782997
  H        37.0154220946       29.4742121668       14.8499753582
  H        46.1090421118       26.5875670450       11.3854905352
  H        44.6680655137       35.1159614663        7.8141253976
  H        24.4760630309        3.0335662260       12.0530536252
  H        25.6461691726        4.8645842449       13.2770932435
  H        23.2630676324        7.7717799678       11.1880024513
  H        22.1049869404        5.9288417873        9.9631957921
  H        23.8486699073        5.7873699213       14.7405473375
  H        44.9528713425       34.3896350238        9.6947543898
  H        44.9011405345       34.2067320659        6.4905158062
  H        40.6657657721       33.2090526341       10.8531907390
  H        23.1509531384        1.9576672422        8.0015872207
  H        25.7808200649       19.6256303322        3.9140704234
  H        23.6181630927       19.6813243576        2.6721417320
  H        22.2889767933       16.2136530953        4.8420089118
  H        24.4581600843       16.1727262872        6.0847571897
  H        23.7011087145       17.6575397315        1.2431200605
  H        35.1274042564       15.4747468775        3.9584306816
  H        37.2594042080       15.4065141274        2.6680196563
  H        38.6979493566       18.7985715782        4.8887822646
  H        36.5675956655       18.8367932157        6.1943638761
  H        37.2130887304       17.3676549259        1.2413401773
  H        20.3194036331       17.9625894494        4.6499962718
  H        35.0888943010       15.4140183645       12.1579817642
  H        37.2427826892       15.3351298712       13.4078186652
  H        38.6808454969       18.6915810818       11.1332028790
  H        36.5254912227       18.7493002716        9.8745344671
  H        37.2089960247       17.3314948145       14.7954233185
  H        35.1620741533       26.6756346558       11.4054241364
  H        28.5006027611       21.0687229855        7.8875421897
  H        25.7686610147       19.6237386726       12.1758654376
  H        23.5829559585       19.6874208952       13.3871431584
  H        22.2836377533       16.2125725469       11.2110434601
  H        24.4697477450       16.1704391654        9.9945977844
  H        23.6919158162       17.6552176366       14.7951269898
  H        29.0159171821       21.7125141944        9.7346992236
  H        29.1995402809       21.6982757771        6.5631937913
  H        32.1111179867       18.5544029480       10.9955625826
  H        27.3675747730       19.0156256699        8.0774727620
  H        14.8538193357       19.6735538249       12.1063101107
  H        17.0220892858       19.7318125908       13.3426405448
  H        18.3039941158       16.2014082355       11.2476025678
  H        16.1323161627       16.1593928048       10.0098637632
  H        16.9106463146       17.7312159661       14.8120824259
  H        46.0745240752       15.4182903339       12.0448425328
  H        43.9416244099       15.3324447753       13.3316790992
  H        42.5074413334       18.7585138604       11.1616713587
  H        44.6417592925       18.8198490480        9.8645885631
  H        43.9929631946       17.2862206283       14.7840656968
  H        20.2972115440       17.9510763046       11.4047407946
  H        46.0507858148       15.4009401717        4.0092566802
  H        43.9274215584       15.3381022292        2.7053108347
  H        42.5215728297       18.7956785090        4.8433834548
  H        44.6512389144       18.8437945902        6.1491827660
  H        43.9962833792       17.2946372264        1.2324263646
  H        46.1985543240       26.6823048538        4.6232855649
  H        52.7412549256       21.0626917076        8.1945911778
  H        14.8629394180       19.6785556383        3.9058423114
  H        17.0574278191       19.7533293374        2.7099621147
  H        18.3103747616       16.2092241098        4.7989080769
  H        16.1185643993       16.1590075643        6.0057492151
  H        16.9190402946       17.7351007917        1.2605459566
  H        52.3226431790       21.6737105052        6.2946245757
  H        52.0137929187       21.7027996513        9.4954987989
  H        49.0676760655       18.6082306420        5.2041067475
  H        13.2471311406       19.0164157628        7.9759557813
  H        30.0160477206       12.5376040273       12.2837849015
  H        28.9830406496       10.5700209161       13.4224159818
  H        25.3545221616       11.1858175786       11.1978988042
  H        26.4013179573       13.1417794638       10.0564155557
  H        27.2259449199       11.6674235386       14.7928750977
  H        31.0012544069       22.7636308834       12.0146285368
  H        32.0047730772       24.6405950913       13.3131333729
  H        35.6952092267       24.1408069985       11.1603689393
  H        34.6705489889       22.2728290754        9.8528701606
  H        33.6612657139       23.5776171918       14.7625862195
  H        25.8453369575        8.5886227980       11.3712030997
  H        30.8965064438       22.6708139780        3.9171775859
  H        31.9034626317       24.5481049128        2.6206401827
  H        35.5304922490       24.1659948919        4.9028764386
  H        34.5037966416       22.3005422611        6.2060729338
  H        33.6081969216       23.5689835191        1.2092087010
  H        40.6068486622       17.0943335373        4.6365882672
  H        32.5180028421       14.1548913387        8.0524840963
  H        29.8836041624       12.4700300780        3.9287000902
  H        28.8444535766       10.5759746829        2.6826695581
  H        25.1618611737       11.2017281074        4.8141089013
  H        26.2201619808       13.0874092221        6.0688488456
  H        27.1602422185       11.6845181976        1.2390794606
  H        33.2996537218       14.2849928809        6.2995133218
  H        33.4083482588       14.2877887511        9.4676939955
  H        31.9975101787       18.5350090892        5.0619957286
  H        30.2046419870       14.1403029057        8.0249191899
  H        16.1182930343        2.9627327656       12.1294851676
  H        14.9527107173        4.8194359914       13.3222874279
  H        17.3645497990        7.6857111302       11.2095863732
  H        18.5138469562        5.8185197145       10.0098032326
  H        16.7524853980        5.7388321573       14.7713549673
  H        44.8278975027       32.1402434172       11.9770501001
  H        45.9371651837       30.3413325423       13.3064636184
  H        43.6822041064       27.3781752440       11.1523954126
  H        42.5995390929       29.1900157811        9.8097936803
  H        44.2300590845       29.4366156091       14.7688507766
  H        14.8498261510        8.5454899705       11.3632220611
  H        44.8999528924       32.2338571811        3.9320403086
  H        46.0246930572       30.4127514659        2.6524618379
  H        43.7626562390       27.4839625172        4.8449483680
  H        42.6449914828       29.3176328953        6.1240329006
  H        44.2681262949       29.4703237618        1.2181278537
  H        35.0021369464       26.6326835623        4.6471248621
  H        36.6051640296       35.1340439299        8.1805718548
  H        16.1440675308        3.0128073246        3.9040118730
  H        14.9744143065        4.8559919366        2.6882242397
  H        17.3955729584        7.7472214585        4.7555895572
  H        18.5425505391        5.8934060999        5.9834647091
  H        16.7641123614        5.7550243646        1.2190641643
  H        36.2790547850       34.4820807662        6.2734610514
  H        36.3804651369       34.2092027183        9.4996604329
  H        40.5788348699       33.2019322883        5.1545601510
  H        17.4715237633        1.9473493302        7.9742066890
  H        29.1523014390       19.5106848198       12.5405796477
  H        28.7938745559       19.0751249537        3.7251725526
  H        30.7120905835       15.4072744384        3.6361793782
  H        27.9838352141       17.8929108135       14.4192173578
  H        30.1652497164       15.3938970352       14.3748296901
  H        18.8528019137        0.8691027566       12.3349756377
  H        40.5281805594       35.2290951971        3.9522168519
  H        42.3229519676       34.4178027039        3.5914184898
  H        22.0878007747        0.6919353416       12.3520473831
  H        11.5968979852       18.7124419153       12.3824232526
  H        52.2649634778       18.4315257296        3.6778659636
  H        49.2551447085       16.4767342664        3.5843514125
  H        10.1503533698       15.7984023217       12.2925276394
  H        50.8501988467       17.6926718589        3.9540040428
  H        10.0459362021       17.3949504088       12.0518821649
  H        20.2136783246        0.0022515156       12.0422383193
  H        39.1834430344       36.1241086914        3.6860903067
 Ni        30.1014766601       17.4246669836        2.5836194822
 Ni        30.6506321538       16.5209136514        0.4966831216
 Ni        29.2942163714       18.2354622217        0.3381586935
 Ni        30.0574961044       17.5987989488       13.4121967214
  O        10.6498829209       14.3651826244        5.4858030058
  O        12.6130718557       14.6574137740        6.5839025641
  O        49.1473100109       16.8459568916        7.9898555528
  O        50.3500387291       20.9362178771        5.6482293569
  O        48.3484123849       20.5931740524        6.6660158668
  O        11.0507910298       17.0540018660        6.5007022164
  O        50.3207530766       20.8817141240       10.4068972912
  O        48.3465957172       20.5865892551        9.3271028004
  O        49.5433730309       18.2483930767       10.0682481780
  O        12.3586964711       18.6246978247        7.9997434972
  O        48.6930643274       14.1487399200        6.7512528600
  O         8.2097328269       14.2106606516        9.3226579813
  O        10.7350866077       14.5067184811       10.6643122125
  O        12.5716748061       14.5826884644        9.3285944261
  O        22.8443138242        2.0428086928        5.4866034620
  O        21.6058536419        3.5926933943        6.5886336985
  O        42.0578486682       34.1372489621        7.9793748945
  O        37.9813439892       33.1367086532        5.5724307603
  O        39.2171846805       31.5751294089        6.6655775274
  O        20.3085852021        1.0402757077        6.5022436589
  O        38.0241957696       33.1845232774       10.4158166165
  O        39.2183067439       31.5829249730        9.3275700185
  O        40.6522347973       33.7695152245       10.0603889228
  O        18.2562730889        1.3762485382        7.9969059511
  O        44.6221256214       35.1006026261        6.7588442330
  O        24.2053982146        0.0000563863        9.3208481567
  O        22.7542441652        2.0591146941       10.5844987448
  O        21.6270643552        3.5985117867        9.3457559295
  O        27.4503781134       18.6955248289        5.4939626332
  O        26.6912072595       16.9133101325        6.6694339556
  O        30.6392988673       19.3398561902        8.0632001588
  O        33.5358568256       16.3445254702        5.5790823100
  O        34.2632942669       18.1704786784        6.7332964416
  O        29.5362727899       17.0114123042        6.5678851665
  O        33.4521974667       16.3298473468       10.4989266683
  O        34.2459995749       18.1644107570        9.4048842262
  O        31.6066911068       18.2397009236       10.2274533810
  O        30.2965206028       15.1068842856        8.0042965117
  O        28.5480111002       21.0257450690        6.8356231099
  O        28.5163036188       20.9461487283        9.4053932876
  O        27.4583399838       18.6771918971       10.6597987460
  O        26.6918000317       16.9262250073        9.4180232728
  O        13.1469388682       18.6937672242       10.5862877441
  O        13.9182231117       16.9161031027        9.4042301391
  O        50.5953934050       19.3501566831        8.0208532333
  O        47.6802656774       16.3276441229       10.4177364226
  O        46.9485078862       18.1753694838        9.3263680781
  O        11.0687954422       17.0159564695        9.4896105917
  O        47.6739128677       16.3362864775        5.6518651273
  O        46.9239910353       18.2357907385        6.6623648996
  O        49.5684797112       18.3177159687        5.9823877933
  O        10.3185007620       15.1003080723        7.9971720747
  O        52.6707073045       21.0279963014        9.2418004763
  O        12.1467823214       20.8913944078        6.6733824984
  O        13.1044772972       18.6143158833        5.3263820419
  O        13.9550095521       16.9864714942        6.6655635906
  O        30.0087668067       14.5853759192       10.7385011815
  O        28.0979004192       14.6555387399        9.4959654931
  O        32.0692619233       16.8526578917        7.9893897000
  O        30.9663644669       20.9459823006       10.4063919444
  O        32.9464339752       20.5862848946        9.3365381106
  O        29.5649676672       17.0637540783        9.5610912882
  O        30.8483738894       20.8872682453        5.6620457445
  O        32.8675843902       20.5820275910        6.6632793705
  O        31.6055215343       18.2464891532        5.9046254348
  O        28.2570907240       18.6260031971        8.0693774436
  O        32.4902630826       14.2103874152        9.1557603779
  O        32.4002623151       14.2231805772        6.6643391669
  O        29.8922989059       14.4313297451        5.4137788648
  O        28.0405757813       14.5792732135        6.7337388765
  O        17.8892879608        1.9665570717       10.6627321822
  O        18.9564528893        3.5271533873        9.4080451252
  O        39.1685568242       34.1386226110        7.9971807070
  O        43.2801452471       33.0589856988       10.3316859129
  O        42.0343501925       31.5065128356        9.2415995994
  O        20.3176026321        1.0365916541        9.4801380390
  O        43.2760175283       33.1824927273        5.5749654027
  O        42.0051614054       31.5841328095        6.5830676460
  O        40.5790981023       33.7751375697        5.9363228170
  O        22.3673771523        1.3850428172        7.9982549334
  O        36.6728528239       35.0996959364        9.2332805558
  O        16.4457446849        0.0642519911        6.6683183684
  O        17.9364363441        2.0432867820        5.3264946357
  O        18.9192939209        3.5931025424        6.6660793649
  O        29.6626307446       18.8307666027        4.0898661618
  O        29.8171241829       18.9700253935       12.0725650548
  O        31.0539858547       16.2747899739        3.9212298914
  O        30.6717450292       16.2062291058       14.5610246668
  O        28.7629352567       18.4628267124       14.5700497227
  O        39.4568673943       35.2437295066        4.0020454580
  O        19.1408234829        0.0045283176       11.9905944263
  O        41.9695261142       35.1726044173        4.0873485930
  O        21.6914386208       -0.0692274758       11.8959505037
  O        51.3648583676       18.6144133505        4.0053288965
  O        10.7509958077       18.7471234482       11.9050824840
  O        50.0795120309       16.4127003612        4.0917524343
  O         9.5243275750       16.4831949067       11.9911783511
 Zr         9.2965612259       16.0529577890        6.1822043492
 Zr        49.8361249008       16.0072744462        9.7467900226
 Zr        22.0728436566        0.0292682646        6.1896287366
 Zr        42.4607045113       35.1536536453        9.8013952197
 Zr        29.5467057685       19.0480334471        6.2221153719
 Zr        29.5572034121       19.1633615129        9.8928400126
 Zr        11.0375774257       19.0525114579        9.8279743258
 Zr        11.0433777566       19.1551943686        6.2513601253
 Zr        31.3579103180       16.0897208120        9.6864121845
 Zr        31.3213549113       16.0154141912        6.1128431296
 Zr        18.6006977148       -0.0022127320        9.7633405317
 Zr        18.5065356047       -0.0078243575        6.2135931776
 Zr        12.3012918415       16.3234528657        7.9906535798
 Zr        48.6154660582       18.8327749221        8.0105576928
 Zr        20.3158688936        2.4738212202        7.9918879877
 Zr        40.6425947077       32.6862295676        7.9782312836
 Zr        28.3115081421       16.3319524055        8.0686113651
 Zr        32.5899068397       18.8609873355        8.0139894373
  H        28.8427721157       17.9463886453        1.8103281189
