     568
 i =      167, E =     -4744.3830917249
  C        11.8586120341       14.0535945882        5.7415785438
  C        12.4561015176       12.8905207458        5.0233381629
  C        11.7044985458       12.1718782540        4.0813984081
  C        12.2808262144       11.1096509207        3.3890192084
  C        13.6212707748       10.7395460859        3.6170158830
  C        14.3543108251       11.4427939772        4.5908194440
  C        13.7814670652       12.5077877742        5.2823519797
  C        14.2608417917        9.6489115214        2.8435952266
  C        14.2562556524        9.6568538614        1.4218837542
  C        13.7430996186       10.7589683300        0.6679558053
  C        49.1265114761       21.2333406032        5.8798001604
  C        48.5496398024       22.4011595048        5.1526446573
  C        49.2997939841       23.0687407586        4.1719190661
  C        48.7328406201       24.1078297552        3.4386823297
  C        47.4021604323       24.5091525499        3.6670169395
  C        46.6710158250       23.8599431424        4.6801657838
  C        47.2334958412       22.8150738619        5.4095601025
  C        46.7720132565       25.5869098915        2.8697399962
  C        46.7611316662       25.5573809009        1.4479777643
  C        47.2610294385       24.4422555830        0.7045128795
  C        14.8602481007        8.5705394092        0.7086165909
  C        14.8916014835        8.5969320414        3.5202300045
  C        49.1129638288       21.2034147312       10.1453872368
  C        48.5275047590       22.3646927270       10.8725797345
  C        49.2668694313       23.0257916253       11.8651387649
  C        48.6904779457       24.0603108049       12.5965921789
  C        47.3598755881       24.4566463470       12.3586895628
  C        46.6392574027       23.8112807550       11.3356136389
  C        47.2128711663       22.7753865039       10.6038469811
  C        46.7214718284       25.5316835731       13.1496757709
  C        46.7333392557       25.5281642374       14.5713756660
  C        47.2487589987       24.4289417401       15.3277524091
  C        40.6168577671       17.1029857529       15.3064339289
  C        40.6245458692       17.1023399642       12.4969017966
  C        11.8828288852       14.0865674790       10.2854081929
  C        12.4721018268       12.9105866805       10.9895553403
  C        11.7146841712       12.1776828142       11.9159670117
  C        12.2812051280       11.0951938553       12.5844090184
  C        13.6198824717       10.7211323809       12.3523083879
  C        14.3577028049       11.4363206269       11.3910990273
  C        13.7923287900       12.5175141374       10.7183890018
  C        14.2535307851        9.6244254453       13.1227642009
  C        14.2523934858        9.6444661359       14.5446166318
  C        13.7425417805       10.7534224832       15.2916986067
  C        22.5123526283        3.2456689687        5.7539000979
  C        23.2263636148        4.3540643237        5.0573907048
  C        24.2266647799        4.0799098130        4.1129662830
  C        24.8511519730        5.1233935208        3.4341298591
  C        24.4912765893        6.4636957656        3.6791082636
  C        23.5197166227        6.7294488977        4.6611511007
  C        22.8907627792        5.6878481586        5.3384265519
  C        25.0918346206        7.5734546420        2.9032223690
  C        25.0623743996        7.5646446053        1.4817027315
  C        24.3603114683        6.5632579607        0.7382334813
  C        38.2971631927       31.9274591688        5.8516574538
  C        37.5535900243       30.8390344769        5.1506039457
  C        36.5865939044       31.1469718362        4.1808586920
  C        35.9538646482       30.1301968763        3.4702876677
  C        36.2721918697       28.7779531348        3.7050717161
  C        37.2084210536       28.4774262763        4.7128341038
  C        37.8449448978       29.4932418556        5.4231107248
  C        35.6615124373       27.6902876788        2.9043135036
  C        35.7024476258       27.7062885976        1.4822096852
  C        36.4124448964       28.7095819626        0.7498467579
  C        25.6827467895        8.6344028839        0.7593641855
  C        25.6851734906        8.6521213194        3.5717233026
  C        38.3302781744       31.9609621751       10.1599865727
  C        37.6127745192       30.8884502585       10.9090183748
  C        36.6788923625       31.1989711477       11.9096668862
  C        36.0675865004       30.1826959890       12.6419863209
  C        36.3753859576       28.8289727997       12.3984526099
  C        37.2903767487       28.5283635204       11.3705265786
  C        37.9031989601       29.5411709689       10.6390191364
  C        35.7599059982       27.7307941396       13.1800638127
  C        35.7524822023       27.7272610854       14.6027935520
  C        36.4349967258       28.7205631211       15.3731266353
  C        46.1354558601       26.6208845865       15.2814841942
  C        46.0874372496       26.5799637761       12.4735893903
  C        22.4593162913        3.2562998404       10.2595318070
  C        23.1489500911        4.3658373161       10.9861333765
  C        24.1454193239        4.0813986845       11.9334595718
  C        24.7691004367        5.1125331681       12.6321187149
  C        24.4171547555        6.4583727642       12.4058055185
  C        23.4433607017        6.7359105167       11.4275588979
  C        22.8146437247        5.7050470135       10.7299143598
  C        25.0462436740        7.5584109764       13.1792257151
  C        25.0395999233        7.5559501591       14.6022683974
  C        24.3470074425        6.5604868968       15.3614532131
  C        26.6159873154       17.8649082584        5.7513884062
  C        25.3092261745       17.9344825583        5.0339733927
  C        25.0561978120       18.9354524744        4.0829548764
  C        23.8388339406       18.9697340930        3.4054626133
  C        22.8415453418       18.0048579606        3.6545115374
  C        23.0907167716       17.0290751171        4.6382077622
  C        24.3073302399       16.9914083071        5.3162523075
  C        21.5694734932       17.9937100030        2.8900882038
  C        21.5717327065       17.9736085259        1.4675855570
  C        22.7785365278       17.8540578459        0.7082942459
  C        34.4402897996       17.1951402476        5.9179157989
  C        35.7313751423       17.1484075283        5.1731018943
  C        35.9405881632       16.1805660426        4.1779498976
  C        37.1195961933       16.1733089457        3.4385669710
  C        38.1247419344       17.1309130071        3.6757688417
  C        37.9198628808       18.0785255295        4.6968869664
  C        36.7366620265       18.0929010714        5.4319294568
  C        39.3774216795       17.1404787665        2.8862393036
  C        39.3676283999       17.1454587772        1.4641227679
  C        38.1584177754       17.2700911765        0.7101513343
  C        20.3255895743       17.9851068794        0.7585079576
  C        20.3445599660       17.9880517287        3.5719653854
  C        34.4328826537       17.2372815054       10.1928722703
  C        35.7331151815       17.1352090683       10.9131468787
  C        35.9293909243       16.1725348373       11.9144721948
  C        37.1208387343       16.1435656183       12.6349917046
  C        38.1445051642       17.0758641418       12.3747341129
  C        37.9540525923       18.0097334024       11.3386401185
  C        36.7624087618       18.0443763934       10.6214029875
  C        39.3947692081       17.0957945743       13.1661257618
  C        39.3764521680       17.1240216796       14.5877531356
  C        38.1625798541       17.2593557853       15.3331727606
  C        35.1163576210       26.6479940234       15.3021711867
  C        35.1780139362       26.6577754551       12.4922704916
  C        26.5711529632       17.8317141647       10.3242350935
  C        25.2550439440       17.8857589416       11.0256888164
  C        24.9873592184       18.9058980014       11.9510213713
  C        23.7692023482       18.9392909917       12.6236349972
  C        22.7897142665       17.9526119744       12.3943576341
  C        23.0509016296       16.9577163807       11.4348450503
  C        24.2697384488       16.9224007579       10.7601085004
  C        21.5261565122       17.9415644619       13.1676278711
  C        21.5490551441       17.9456007755       14.5891019277
  C        22.7675921800       17.8407301761       15.3320220288
  C        14.0458936300       17.8307930700       10.2865257874
  C        15.3510058518       17.8938034232       11.0087783788
  C        15.6065341789       18.9051666429       11.9477710391
  C        16.8157953943       18.9330962267       12.6391922227
  C        17.8025611620       17.9524679147       12.4131476138
  C        17.5520051511       16.9651915963       11.4416806187
  C        16.3421092412       16.9329330240       10.7515475822
  C        19.0707800906       17.9434813178       13.1821803852
  C        19.0679430576       17.9502986220       14.6044871884
  C        17.8604919811       17.8510901719       15.3650490305
  C        46.8009772939       17.2156255874       10.1562329798
  C        45.5060697750       17.1443877333       10.8941855432
  C        45.3002723792       16.1622735443       11.8757929864
  C        44.1153315701       16.1349184673       12.6068152745
  C        43.1043940866       17.0893550184       12.3794776341
  C        43.3062785524       18.0491202851       11.3688676267
  C        44.4922089461       18.0806053878       10.6387090858
  C        41.8514771737       17.0970109556       13.1707167421
  C        41.8614132984       17.1074879204       14.5930702444
  C        43.0727486861       17.2060159337       15.3474805603
  C        20.3139011931       17.9705466420       15.3135213987
  C        20.2948846127       17.9212395106       12.5005157515
  C        46.7850825247       17.2333286401        5.8853050402
  C        45.4844581524       17.1327241850        5.1636235781
  C        45.2656805512       16.1369412084        4.1993098088
  C        44.0788160970       16.1133302601        3.4706366136
  C        43.0801741813       17.0829107238        3.6876590301
  C        43.2904466196       18.0498139204        4.6888391113
  C        44.4779878356       18.0794479759        5.4131980974
  C        41.8320581407       17.1055021408        2.8927548160
  C        41.8516778775       17.1105294795        1.4712227327
  C        43.0682808623       17.2043890611        0.7245783415
  C        46.1532527244       26.6373424241        0.7262389925
  C        46.1620898011       26.6560201788        3.5358850212
  C        14.0445186646       17.8337317213        5.7087181612
  C        15.3643017302       17.9156946628        5.0163234370
  C        15.6294735427       18.9376264639        4.0923269566
  C        16.8562155588       18.9858523760        3.4341524174
  C        17.8456509604       18.0114791607        3.6744555438
  C        17.5869813082       17.0176634569        4.6360587079
  C        16.3620350816       16.9689332963        5.2978672904
  C        19.1126141751       17.9993927843        2.9045325935
  C        19.0898741714       17.9784169201        1.4828354628
  C        17.8711163134       17.8638050577        0.7413609530
  C        28.8046017569       14.0879491966       10.3891281816
  C        28.1903151433       12.9158018365       11.0762220163
  C        28.9139055094       12.1659072072       12.0153941520
  C        28.3101432331       11.0951604904       12.6698058837
  C        26.9693372397       10.7485039987       12.4074868907
  C        26.2676175897       11.4770303134       11.4302358356
  C        26.8684174201       12.5492936096       10.7756169032
  C        26.2982164285        9.6714167226       13.1713850999
  C        26.2866639147        9.7012809553       14.5925040434
  C        26.7913596012       10.8155432749       15.3353365413
  C        32.1799856482       21.2353263010       10.1477747723
  C        32.7753390187       22.4001620267       10.8681966011
  C        32.0240764844       23.0864149682       11.8350903075
  C        32.5942305324       24.1269287502       12.5623597730
  C        33.9317714284       24.5110467671       12.3442707743
  C        34.6658874773       23.8434330722       11.3458035926
  C        34.0981891887       22.7969477620       10.6206781020
  C        34.5571540077       25.5880890464       13.1468850485
  C        34.5360630620       25.5614726018       14.5686903157
  C        34.0278917504       24.4432638206       15.3023413982
  C        25.6767638244        8.6255418884       15.3142538375
  C        25.6610121786        8.6196061051       12.5004817602
  C        32.0935650799       21.1649407739        5.8396831129
  C        32.6557386688       22.3345920190        5.1026007914
  C        31.9267331476       22.9722878308        4.0868310619
  C        32.4931829657       24.0244395068        3.3691630140
  C        33.8034321590       24.4662351239        3.6436099267
  C        34.5117679164       23.8414075808        4.6883741600
  C        33.9496856892       22.7888231887        5.4048321690
  C        34.4419849029       25.5561918563        2.8685455784
  C        34.4763206964       25.5453913348        1.4462145974
  C        33.9990298961       24.4362426999        0.6787863615
  C        40.6117871107       17.1095579048        0.7514884506
  C        40.6031303701       17.1378444485        3.5618602350
  C        28.7231466596       14.1009974339        5.8180611925
  C        28.1065814161       12.9552812390        5.0841554604
  C        28.8421198127       12.2597329094        4.1116493062
  C        28.2629087223       11.2019295604        3.4149891603
  C        26.9314980570       10.8113410726        3.6641170077
  C        26.2129407370       11.4950376896        4.6632462118
  C        26.7903924218       12.5542277198        5.3620849184
  C        26.2931519929        9.7165002559        2.8926364667
  C        26.2848092355        9.7247927504        1.4701578485
  C        26.7870274652       10.8286754952        0.7115507139
  C        18.1353814605        3.1808762187       10.3171552050
  C        17.4060444179        4.2781000886       11.0157597425
  C        16.3904058257        3.9997216225       11.9433630210
  C        15.7426444103        5.0396888566       12.6068478864
  C        16.0944288804        6.3834310366       12.3670809361
  C        17.0837141291        6.6529616761       11.4032153669
  C        17.7328543223        5.6156369981       10.7381825525
  C        15.4700786200        7.4911279335       13.1301116090
  C        15.4854540776        7.4905019887       14.5518232565
  C        16.1870994079        6.4969564512       15.3049996340
  C        42.9457561039       31.8594602972       10.0728305264
  C        43.6460664616       30.7718002147       10.8167213499
  C        44.5917156708       31.0930955767       11.8027038575
  C        45.1973942444       30.0875362823       12.5503532944
  C        44.8708294495       28.7344749512       12.3356272054
  C        43.9448991829       28.4201584290       11.3224915021
  C        43.3361308820       29.4253097689       10.5744277656
  C        45.4884135127       27.6552044877       13.1388485187
  C        45.4927887070       27.6810144297       14.5605376186
  C        44.8058787289       28.6891788060       15.3071621461
  C        14.8564683864        8.5629923694       15.2641762838
  C        14.8746934217        8.5628308792       12.4515065615
  C        42.9464816766       31.9616039636        5.8089833970
  C        43.6917647475       30.8855316466        5.0956382440
  C        44.6563737618       31.1914456933        4.1233302684
  C        45.2778543625       30.1718621463        3.4055840421
  C        44.9540251104       28.8215294096        3.6431459798
  C        44.0205853598       28.5238612150        4.6539764534
  C        43.3923620267       29.5406149070        5.3661941477
  C        45.5629903554       27.7241411836        2.8578403142
  C        45.5333907528       27.7175566739        1.4365368945
  C        44.8272024481       28.7078607609        0.6835553190
  C        35.0881872431       26.6389196384        0.7477141574
  C        35.0466252748       26.6158944488        3.5580030827
  C        18.1485738390        3.2469354573        5.7066247042
  C        17.4299826569        4.3437684261        4.9973229042
  C        16.4148486007        4.0524922019        4.0736697610
  C        15.7665225849        5.0831155591        3.3982818585
  C        16.1210720229        6.4283702335        3.6210879269
  C        17.1123770129        6.7117514417        4.5784266249
  C        17.7600670974        5.6828482892        5.2581926856
  C        15.4905520330        7.5240632520        2.8486453907
  C        15.4965055115        7.5074590640        1.4275088934
  C        16.1933366265        6.5058020251        0.6808135110
  H        10.6724631447       12.4662404675        3.9041870997
  H        11.6945509333       10.5513767406        2.6623070872
  H        15.3912208809       11.1679106455        4.7728112007
  H        14.3508117960       13.0707776166        6.0180599182
  H        13.3760176361       11.6310677331        1.2012582104
  H        50.3226086955       22.7489209528        3.9874195630
  H        49.3193793361       24.6232976811        2.6812857438
  H        45.6413506029       24.1603422811        4.8629836435
  H        46.6623158531       22.2895370358        6.1713285326
  H        47.6294089517       23.5758205554        1.2462165043
  H        14.8718320656        8.5881250409        4.6085351076
  H        50.2870610714       22.7032520380       12.0597783980
  H        49.2689247314       24.5760525365       13.3598596371
  H        45.6096315503       24.1080194199       11.1469582855
  H        46.6518325125       22.2527951378        9.8327292230
  H        47.6073880848       23.5517588902       14.7968539824
  H        40.6268035134       17.0592092258       11.4093847012
  H        48.6868715655       14.0950407365        7.7999718760
  H        10.6813146611       12.4669965909       12.0935803126
  H        11.6894279963       10.5250213906       13.2972977133
  H        15.3929980535       11.1581225333       11.2048685118
  H        14.3645329292       13.0865916665        9.9895244200
  H        13.3756425735       11.6220010716       14.7530523592
  H        47.9300090110       14.2186212524        9.7107800375
  H        47.7798416135       14.3732277002        6.4950162043
  H        49.0818502740       18.5515146951       10.8668737724
  H        10.4156172245       14.1343805260        7.9987618454
  H        24.4923864060        3.0427859831        3.9205480837
  H        25.6264236107        4.9100264436        2.7014064251
  H        23.2339569283        7.7608166405        4.8572316971
  H        22.1182650455        5.8841513009        6.0779034555
  H        23.8005658981        5.8069883611        1.2807629100
  H        36.3554389596       32.1913894483        3.9850742616
  H        35.2052996229       30.3754257316        2.7200163975
  H        37.4633145615       27.4369455480        4.9035828334
  H        38.5929539682       29.2660881820        6.1791546487
  H        36.9711816657       29.4610395267        1.3000252126
  H        25.7205595667        8.6369445937        4.6595809423
  H        36.4512441200       32.2434714221       12.1102770927
  H        35.3366034402       30.4307919004       13.4083885642
  H        37.5421969719       27.4879638510       11.1757306416
  H        38.6300638507       29.3123594342        9.8634079446
  H        37.0119535452       29.4801282493       14.8533831103
  H        46.1086311705       26.5871690553       11.3855478762
  H        44.6682936764       35.1161874049        7.8138442431
  H        24.4224958031        3.0434822128       12.1037162002
  H        25.5458943005        4.8842500835       13.3587836048
  H        23.1595004806        7.7701038845       11.2434943388
  H        22.0471709667        5.9171630586        9.9891066153
  H        23.7761187442        5.8029367945       14.8323402453
  H        44.9539282196       34.3905342306        9.6952838720
  H        44.9016809222       34.2068403937        6.4904766026
  H        40.6663192996       33.2089587421       10.8529950775
  H        23.1503351234        1.9579660010        8.0057962307
  H        25.8222454165       19.6835379805        3.8911177219
  H        23.6457495770       19.7523444074        2.6748459323
  H        22.3317597033       16.2757747456        4.8394231231
  H        24.5111773510       16.2246698774        6.0600277359
  H        23.7194991072       17.7394656020        1.2383004643
  H        35.1641862466       15.4429341583        3.9911452679
  H        37.2776530361       15.4168396173        2.6731126673
  H        38.6873857122       18.8265486709        4.8846684323
  H        36.5625203115       18.8401745234        6.2026586069
  H        37.2205261279       17.4078918849        1.2409699606
  H        20.3503937909       18.0249760041        4.6599357564
  H        35.1302581375       15.4668543192       12.1291397180
  H        37.2696804861       15.3952640080       13.4102266105
  H        38.7371075446       18.7360654435       11.1313049612
  H        36.5956684430       18.7854600314        9.8435543259
  H        37.2277265454       17.3900667146       14.7953385799
  H        35.1620071681       26.6821471767       11.4042870540
  H        28.5126348385       21.0758698587        7.8862988748
  H        25.7470185391       19.6643787454       12.1253054590
  H        23.5613032724       19.7340119174       13.3368634153
  H        22.3022741716       16.1895659662       11.2519464709
  H        24.4875126361       16.1426372822       10.0341805371
  H        23.6999780791       17.7171891069       14.7890950656
  H        29.0148182472       21.7181819943        9.7384051512
  H        29.1528410075       21.7423002485        6.5485790140
  H        32.0701746104       18.5745430110       10.9980437836
  H        27.3962408295       19.0624376007        8.0791994495
  H        14.8467804440       19.6641755366       12.1202116709
  H        17.0112969001       19.7230763448       13.3611499862
  H        18.3042355722       16.2004885124       11.2591496816
  H        16.1358597833       16.1580048372       10.0170875839
  H        16.9188460710       17.7309650991       14.8372529695
  H        46.0866197348       15.4341092874       12.0602809612
  H        43.9588065972       15.3662713600       13.3605004859
  H        42.5343524198       18.7940696802       11.1870620680
  H        44.6628898677       18.8372788738        9.8764290554
  H        44.0130646413       17.3142092877       14.8145435765
  H        20.2890496335       17.9411514709       11.4121707467
  H        46.0408990817       15.3946469426        4.0231770215
  H        43.9122891378       15.3390386431        2.7248964759
  H        42.5254960214       18.8035701924        4.8634452412
  H        44.6598226982       18.8446426523        6.1638543152
  H        44.0052770492       17.3103496571        1.2636533643
  H        46.1987761589       26.6824362722        4.6233384924
  H        52.7409240084       21.0625540082        8.1945840224
  H        14.8640352795       19.6879327530        3.9069942058
  H        17.0607928713       19.7815599247        2.7210376666
  H        18.3424056839       16.2586393668        4.8287673596
  H        16.1473016351       16.1890917241        6.0245556788
  H        16.9375550882       17.7532545829        1.2848189054
  H        52.3217882408       21.6732151325        6.2947602404
  H        52.0129371272       21.7019167278        9.4955660116
  H        49.0669353215       18.6077067550        5.2041753318
  H        13.2469012171       19.0169540300        7.9769372393
  H        29.9478151152       12.4351717603       12.2189002745
  H        28.8723963208       10.5139642162       13.3975166287
  H        25.2317752135       11.2188274485       11.2198202114
  H        26.3237389040       13.1337490427       10.0381736143
  H        27.1566153231       11.6817011421       14.7917100092
  H        30.9958385138       22.7800765450       12.0111800818
  H        32.0060420010       24.6572513639       13.3081173074
  H        35.7013635862       24.1287460177       11.1715431393
  H        34.6718991799       22.2565739913        9.8712057988
  H        33.6884773514       23.5696526525       14.7527889934
  H        25.6903254399        8.5981142225       11.4124989573
  H        30.9206610501       22.6230922493        3.8646626982
  H        31.9191942140       24.5205241117        2.5895347196
  H        35.5258265249       24.1687878235        4.9081906381
  H        34.5042893252       22.2872625011        6.1942777298
  H        33.6376009756       23.5562955163        1.2030231563
  H        40.5995774456       17.1056310101        4.6497341633
  H        32.5024399517       14.1525733766        8.2633671468
  H        29.8686380147       12.5639646402        3.9200960994
  H        28.8423613907       10.6593394928        2.6711388904
  H        25.1829119669       11.2072156360        4.8637049604
  H        26.2305742505       13.0958957052        6.1209412571
  H        27.1471716403       11.7055660082        1.2416445057
  H        33.3075488418       14.2244493705        6.4651346557
  H        33.4039105261       14.4169119367        9.6011106674
  H        32.1293214407       18.4732976328        5.1572469821
  H        30.2096340680       14.1882584093        8.0867295957
  H        16.1184268169        2.9632072651       12.1298281658
  H        14.9532393869        4.8202864891       13.3225506456
  H        17.3660249599        7.6858513542       11.2100099995
  H        18.5148204502        5.8183019803       10.0102637946
  H        16.7536899444        5.7396379726       14.7715076836
  H        44.8281317670       32.1401545421       11.9768260589
  H        45.9373613081       30.3412547817       13.3062088798
  H        43.6820929858       27.3781022428       11.1524563884
  H        42.5995093147       29.1899271908        9.8097825031
  H        44.2305551354       29.4369770733       14.7688715132
  H        14.8508067675        8.5459802311       11.3632896517
  H        44.8999750629       32.2341156666        3.9319015307
  H        46.0247534843       30.4130836141        2.6523394906
  H        43.7635762646       27.4841366855        4.8455123318
  H        42.6458983574       29.3177477003        6.1246517795
  H        44.2687560943       29.4708126249        1.2181096121
  H        34.9951363128       26.6279692456        4.6451565115
  H        36.6052422432       35.1339808846        8.1807171981
  H        16.1438264562        3.0129097966        3.9038868571
  H        14.9742404510        4.8562581650        2.6881527052
  H        17.3957869631        7.7472306011        4.7553977952
  H        18.5428767805        5.8933154028        5.9830223071
  H        16.7648121454        5.7555962653        1.2192544431
  H        36.2787578137       34.4822653799        6.2731505292
  H        36.3810341085       34.2089804331        9.4995689786
  H        40.5790471376       33.2015931306        5.1540097607
  H        17.4710947752        1.9469410680        7.9741106324
  H        29.1696774215       19.3841565608       12.5505445973
  H        28.8075773297       18.4988701516        3.7829536119
  H        32.1477319126       15.9414478818        3.5916103945
  H        30.9764775251       15.5168639173       12.5406846563
  H        28.7823328868       18.2342428969       15.2760581984
  H        29.1537506113       15.7398094900       14.7929702318
  H        32.5194913676       17.9716043107        1.0579740317
  H        32.8014222777       19.9304024300       16.3177842662
  H        18.8539712949        0.8690436478       12.3352360189
  H        40.5278943374       35.2289550468        3.9520421979
  H        42.3241591391       34.4189116114        3.5906169121
  H        22.0878503315        0.6921104422       12.3513075708
  H        11.5970890948       18.7125774389       12.3822144972
  H        52.2642156938       18.4309092727        3.6773553800
  H        49.2546800629       16.4767550223        3.5847314019
  H        10.1498014638       15.7982650332       12.2929945752
  H        50.8492908640       17.6923728191        3.9542070098
  H        10.0457921949       17.3945945301       12.0520124557
  H        20.2154905444        0.0023118101       12.0418515689
  H        39.1836535399       36.1245524442        3.6866279142
 Ni        30.8550579766       17.6817014206        2.7529951276
 Ni        30.9450233075       16.6942743598        0.1666230401
 Ni        31.0324180565       18.8447884702       -0.7422365419
 Ni        30.0539796732       17.4532737606       13.3987353325
  O        10.6499189996       14.3651473340        5.4858144447
  O        12.6131949936       14.6575609753        6.5838857048
  O        49.1477207538       16.8459639843        7.9898054194
  O        50.3500779193       20.9362334994        5.6482426956
  O        48.3484534955       20.5933006086        6.6660048097
  O        11.0512438670       17.0539072148        6.5006541257
  O        50.3208494035       20.8817273176       10.4068488080
  O        48.3466840576       20.5867055393        9.3270993017
  O        49.5434321298       18.2484061050       10.0683248356
  O        12.3587897393       18.6244849052        7.9996261520
  O        48.6931582333       14.1486520094        6.7512614284
  O         8.2098099418       14.2104446693        9.3225757046
  O        10.7353336604       14.5067580222       10.6643391608
  O        12.5717914589       14.5828630068        9.3284613609
  O        22.8449164534        2.0446299976        5.4868979134
  O        21.6051573517        3.5922769675        6.5902150062
  O        42.0579801515       34.1372178609        7.9787896365
  O        37.9813115467       33.1365383278        5.5721704868
  O        39.2167660591       31.5747822023        6.6652656001
  O        20.3083837656        1.0393819968        6.5020453393
  O        38.0244139423       33.1850962867       10.4156145962
  O        39.2184014503       31.5830012332        9.3273634022
  O        40.6522065353       33.7691758396       10.0600427240
  O        18.2557657184        1.3757438240        7.9967952521
  O        44.6221967075       35.1005886103        6.7586858374
  O        24.2053705732        0.0000369904        9.3207833346
  O        22.7530049043        2.0582157060       10.5842351489
  O        21.6245269795        3.5962445062        9.3429846618
  O        27.5399621228       18.6928607792        5.4110496109
  O        26.7282479513       16.9898585492        6.6672918983
  O        30.6392986672       19.3516521172        8.0542018421
  O        33.5845470002       16.2744683448        5.6656913492
  O        34.2716711529       18.1646779200        6.7372609090
  O        29.5744829859       17.0500546735        6.5753857078
  O        33.5433517356       16.3399886812       10.4226648665
  O        34.2951533882       18.2345267089        9.4065148080
  O        31.6486721026       18.3117095091       10.1619584791
  O        30.3157043726       15.1538593096        8.0905213172
  O        28.5545824471       21.0282773841        6.8323013591
  O        28.5167635237       20.9521921223        9.4056233720
  O        27.4601907970       18.6810775422       10.6577235069
  O        26.6937142545       16.9303009949        9.4148214152
  O        13.1475182579       18.6935047191       10.5867303739
  O        13.9192154120       16.9162626561        9.4048780469
  O        50.5956414506       19.3501602428        8.0205028370
  O        47.6821089624       16.3271869056       10.4173065021
  O        46.9502766763       18.1756113276        9.3254544297
  O        11.0693958492       17.0155724336        9.4895883927
  O        47.6752601759       16.3360070141        5.6525353393
  O        46.9263958836       18.2358398220        6.6639284588
  O        49.5683030063       18.3177112390        5.9822828261
  O        10.3185452233       15.1002650145        7.9970918225
  O        52.6707141226       21.0279283524        9.2418150319
  O        12.1467586899       20.8912290205        6.6732608793
  O        13.1062181732       18.6143362462        5.3257951059
  O        13.9575594199       16.9876899165        6.6641830353
  O        29.9921495294       14.4368277094       10.7275262411
  O        28.0883697227       14.6541546438        9.4942209520
  O        32.0725980455       16.8550444066        8.0816233378
  O        30.9629726374       20.9469726610       10.4109966438
  O        32.9428171803       20.5991345772        9.3365168639
  O        29.5616510524       17.0765597427        9.5756739791
  O        30.8833761007       20.8139201197        5.5790803577
  O        32.8692389536       20.5833659633        6.6668020819
  O        31.6826550357       18.2449729728        5.9902759913
  O        28.2873994875       18.6764542979        8.0646561861
  O        32.4884908298       14.2156122096        9.3333688132
  O        32.4034514984       14.2172058080        6.8219643928
  O        29.9086676584       14.4425724146        5.4978388330
  O        28.0081381302       14.6485049494        6.7376974528
  O        17.8892151793        1.9665183763       10.6627937335
  O        18.9562072744        3.5270782330        9.4079703931
  O        39.1685644157       34.1385120766        7.9971074683
  O        43.2801507889       33.0589237515       10.3316464825
  O        42.0343087503       31.5064933934        9.2415518231
  O        20.3176716655        1.0366484303        9.4802557050
  O        43.2760506362       33.1826508375        5.5749332937
  O        42.0052004835       31.5841459358        6.5829811815
  O        40.5788900137       33.7748101662        5.9357505919
  O        22.3673142717        1.3846117243        7.9979013198
  O        36.6728085904       35.0996894261        9.2333468871
  O        16.4456390151        0.0641574404        6.6682522380
  O        17.9364926790        2.0433277055        5.3263935589
  O        18.9190233350        3.5930953213        6.6659626017
  O        29.7454531080       18.6710523886        3.9890082263
  O        29.8228031595       18.8372595804       12.0748001148
  O        31.3588925611       16.3357603147        4.0073599830
  O        31.0563390830       16.4072074332       12.1504435492
  O        32.0680086517       17.1404390791        1.4952879778
  O        30.0718880371       16.0389854214       14.6609775772
  O        32.7390845205       19.0500289173       15.9054019308
  O        29.3114214788       18.6824025671       14.5870830630
  O        39.4567282759       35.2438246495        4.0019704296
  O        19.1419611755        0.0046318056       11.9904512151
  O        41.9695505412       35.1726942178        4.0872383406
  O        21.6913385135       -0.0693499993       11.8958176585
  O        51.3644246314       18.6142574870        4.0053380075
  O        10.7511641668       18.7471713332       11.9049509890
  O        50.0793043716       16.4127703277        4.0917530284
  O         9.5241352965       16.4831568185       11.9911976590
 Zr         9.2960212655       16.0528482881        6.1823469480
 Zr        49.8356416874       16.0069021155        9.7466347843
 Zr        22.0733394332        0.0299507426        6.1888647955
 Zr        42.4610091854       35.1533005678        9.8007440615
 Zr        29.6125491290       19.0608620756        6.2388823608
 Zr        29.5752805242       19.1704633895        9.8728116501
 Zr        11.0371488451       19.0521066495        9.8276083881
 Zr        11.0429865469       19.1549341276        6.2512115049
 Zr        31.3199061403       16.1051708601        9.9061095629
 Zr        31.3840323178       16.0065701516        6.2696173849
 Zr        18.6012060396       -0.0016625054        9.7635161444
 Zr        18.5066140721       -0.0079829437        6.2135944459
 Zr        12.3012987809       16.3236138921        7.9900836047
 Zr        48.6151520998       18.8327616337        8.0104852437
 Zr        20.3152338594        2.4734000026        7.9906388135
 Zr        40.6431592300       32.6866355992        7.9778596106
 Zr        28.3363770551       16.3500591015        8.0823304945
 Zr        32.6155343935       18.8255377628        8.0546997386
