     570
 i =      237, E =     -4745.5983043129
  C        11.8587313061       14.0535046946        5.7415712135
  C        12.4562447893       12.8905740129        5.0232956148
  C        11.7046708171       12.1718668704        4.0813734692
  C        12.2810642511       11.1096892025        3.3890041224
  C        13.6215354951       10.7396753887        3.6169968881
  C        14.3545659707       11.4430104340        4.5907440551
  C        13.7816620283       12.5079574467        5.2822745773
  C        14.2611250909        9.6490775645        2.8435790644
  C        14.2565096460        9.6570452107        1.4218813660
  C        13.7434086085       10.7591943245        0.6679661829
  C        49.1267588499       21.2332352303        5.8796627792
  C        48.5500373373       22.4011295385        5.1525885568
  C        49.3000461689       23.0683934628        4.1715222162
  C        48.7331405324       24.1075784719        3.4383796310
  C        47.4026071633       24.5092679241        3.6670105500
  C        46.6717131629       23.8604967136        4.6806370826
  C        47.2341238003       22.8155488621        5.4099458628
  C        46.7724012341       25.5869978075        2.8697664341
  C        46.7614852770       25.5574035621        1.4480017754
  C        47.2613968721       24.4422941206        0.7045102050
  C        14.8604769796        8.5707203367        0.7086249191
  C        14.8918132569        8.5970729192        3.5202332542
  C        49.1132238024       21.2035090025       10.1453583601
  C        48.5279046383       22.3648119152       10.8725301358
  C        49.2671053241       23.0254578467       11.8655191133
  C        48.6907949795       24.0600552582       12.5969204401
  C        47.3603945904       24.4568769664       12.3586438624
  C        46.6400135516       23.8120371464       11.3350465307
  C        47.2135442671       22.7760893636       10.6033148139
  C        46.7219845303       25.5318699341       13.1496520279
  C        46.7337109123       25.5282072843       14.5713523597
  C        47.2491448074       24.4290026458       15.3277458344
  C        40.6300862107       17.0979307294       15.3181298017
  C        40.6465313700       17.1380486034       12.5089111043
  C        11.8829867671       14.0864953044       10.2854890141
  C        12.4722727851       12.9106425417       10.9896311405
  C        11.7148615031       12.1776514019       11.9160003581
  C        12.2814443161       11.0951811601       12.5843916619
  C        13.6201965568       10.7213005079       12.3523915543
  C        14.3579907533       11.4365516618       11.3912102971
  C        13.7925802478       12.5177409469       10.7185486609
  C        14.2538389505        9.6245950468       13.1228091296
  C        14.2526700965        9.6446647607       14.5446429424
  C        13.7428434693       10.7536389427       15.2917118952
  C        22.5111396079        3.2441776442        5.7530039373
  C        23.2242008926        4.3499831681        5.0528217404
  C        24.2183066353        4.0709153271        4.1034267227
  C        24.8433382693        5.1113318715        3.4208919262
  C        24.4899207733        6.4526736844        3.6681097785
  C        23.5241617779        6.7232430586        4.6545139767
  C        22.8943586578        5.6846773061        5.3352247501
  C        25.0929330554        7.5604946729        2.8924587404
  C        25.0589853740        7.5569447822        1.4711325208
  C        24.3548711705        6.5587516459        0.7254289841
  C        38.3026001757       31.9303787101        5.8491716163
  C        37.5727258185       30.8416362087        5.1396225158
  C        36.6142997132       31.1463383622        4.1610280159
  C        35.9968472533       30.1264998029        3.4425128645
  C        36.3230830613       28.7772190604        3.6814772596
  C        37.2516910143       28.4800368012        4.6966621194
  C        37.8733969401       29.4985495998        5.4139069737
  C        35.7200939696       27.6858386252        2.8847737083
  C        35.7513125089       27.6997953585        1.4635364716
  C        36.4584163476       28.7008871752        0.7257900282
  C        25.6789829396        8.6286125426        0.7514328618
  C        25.6944209018        8.6326667345        3.5631326831
  C        38.3287000783       31.9616022978       10.1564235974
  C        37.6075729378       30.8878274140       10.8980068290
  C        36.6782070214       31.1954166197       11.9034563140
  C        36.0687532507       30.1761855025       12.6325618422
  C        36.3742207675       28.8236942942       12.3800887595
  C        37.2810375753       28.5260866714       11.3443807437
  C        37.8926173155       29.5417925994       10.6164741193
  C        35.7666068964       27.7243849049       13.1645076578
  C        35.7751104661       27.7195350790       14.5865941266
  C        36.4692965391       28.7107151410       15.3490654406
  C        46.1357156223       26.6208491548       15.2814835042
  C        46.0879303429       26.5801671565       12.4735958558
  C        22.4596487137        3.2560614662       10.2577162240
  C        23.1504969703        4.3664566660       10.9810715387
  C        24.1509248830        4.0836358517       11.9245069396
  C        24.7750176113        5.1161314155       12.6205141807
  C        24.4189487619        6.4609742776       12.3952910300
  C        23.4417567613        6.7370485744       11.4202913231
  C        22.8128241058        5.7048190842       10.7250733995
  C        25.0459144992        7.5612038703       13.1695228130
  C        25.0355131502        7.5565256430       14.5922956668
  C        24.3418111925        6.5595892516       15.3485463530
  C        26.6158005058       17.8588314200        5.7827562740
  C        25.3091654881       17.9038693443        5.0588180416
  C        25.0433234758       18.9052212703        4.1112522782
  C        23.8307838836       18.9218192975        3.4246446524
  C        22.8466019071       17.9415313387        3.6648979260
  C        23.1079038552       16.9631414463        4.6427819267
  C        24.3229382000       16.9401915853        5.3260017047
  C        21.5739106757       17.9259547187        2.8998664653
  C        21.5758794549       17.9066256111        1.4774629221
  C        22.7826319215       17.7854881576        0.7186443920
  C        34.4389902187       17.1896623175        5.9150503253
  C        35.7327702154       17.1340028443        5.1747731341
  C        35.9459111367       16.1525720737        4.1939855025
  C        37.1256471811       16.1393552877        3.4557521379
  C        38.1258957164       17.1047534111        3.6805960406
  C        37.9175220473       18.0654563860        4.6883840338
  C        36.7340940802       18.0852298352        5.4226503536
  C        39.3794690274       17.1110559349        2.8932762561
  C        39.3736208671       17.1162562351        1.4716333943
  C        38.1652898676       17.2290028938        0.7143686740
  C        20.3302134240       17.9247718990        0.7673365096
  C        20.3486864124       17.9273038212        3.5809939078
  C        34.4653368881       17.2409987812       10.1803475728
  C        35.7660307577       17.1610635122       10.9067983780
  C        35.9841690823       16.1643573991       11.8695584070
  C        37.1710810120       16.1385654338       12.5965033743
  C        38.1684019663       17.1086538566       12.3793566398
  C        37.9569476408       18.0811075688       11.3845003702
  C        36.7680490369       18.1116968074       10.6606544526
  C        39.4160875946       17.1200226463       13.1743010957
  C        39.3927187590       17.1213410365       14.5953436032
  C        38.1744087731       17.2299860869       15.3374690395
  C        35.1429466359       26.6417875555       15.2914234201
  C        35.1777276120       26.6524254743       12.4821545468
  C        26.5759965908       17.8266754534       10.3256839213
  C        25.2623421802       17.8682076366       11.0361063234
  C        24.9968393776       18.8741052084       11.9776924145
  C        23.7786601830       18.8990746344       12.6514303968
  C        22.7963614969       17.9186876856       12.4063319201
  C        23.0568608701       16.9368604858       11.4333057236
  C        24.2758910778       16.9093860264       10.7584883160
  C        21.5313463672       17.9011444605       13.1773560443
  C        21.5537888203       17.8920209695       14.5988299212
  C        22.7715349439       17.7779498558       15.3422152275
  C        14.0472005831       17.8289023601       10.2887223180
  C        15.3524036195       17.8857979004       11.0134489987
  C        15.6101924399       18.8886300210       11.9611713812
  C        16.8196463339       18.9087753948       12.6535089412
  C        17.8059347026       17.9289635239       12.4203848381
  C        17.5530498799       16.9505823613       11.4402684506
  C        16.3430218783       16.9258170736       10.7496089880
  C        19.0749111724       17.9105346115       13.1900621491
  C        19.0723219738       17.9064301969       14.6126353392
  C        17.8645368113       17.8076913649       15.3727465193
  C        46.8052016055       17.2179711518       10.1584447195
  C        45.5154032582       17.1538208657       10.9037003900
  C        45.3101546367       16.1721838319       11.8855120633
  C        44.1287543830       16.1509384131       12.6217679688
  C        43.1231939561       17.1115876462       12.3983511223
  C        43.3256582499       18.0729360032       11.3897611938
  C        44.5076757113       18.0978688370       10.6541574107
  C        41.8706334548       17.1192188551       13.1874172915
  C        41.8766947078       17.1131500788       14.6092537744
  C        43.0857905955       17.2065539518       15.3678871679
  C        20.3183655517       17.9167092371       15.3223259212
  C        20.3000153467       17.8905244464       12.5092163789
  C        46.7856074711       17.2308200656        5.8894187206
  C        45.4827882669       17.1234861878        5.1741187256
  C        45.2650037700       16.1224545959        4.2153777281
  C        44.0774031513       16.0936836756        3.4887652295
  C        43.0785778501       17.0629426856        3.7040986879
  C        43.2866292910       18.0337653661        4.7015176641
  C        44.4753350306       18.0688223483        5.4233192784
  C        41.8328682994       17.0829083626        2.9069407111
  C        41.8575029957       17.0935040158        1.4860167789
  C        43.0767864090       17.1948303831        0.7446358277
  C        46.1534591560       26.6372684791        0.7262402054
  C        46.1623971244       26.6560918265        3.5358966492
  C        14.0446566210       17.8307372420        5.7083278344
  C        15.3648769310       17.9025217133        5.0163464192
  C        15.6396113094       18.9179277228        4.0882616370
  C        16.8684328138       18.9532153555        3.4330803559
  C        17.8495816478       17.9720767401        3.6803518107
  C        17.5814623126       16.9850924301        4.6461178530
  C        16.3547436157       16.9493616098        5.3048326741
  C        19.1171604923       17.9462576704        2.9124061578
  C        19.0944714398       17.9236705855        1.4909495052
  C        17.8753478188       17.8153192936        0.7490006763
  C        28.8089962300       14.0945576895       10.3947560442
  C        28.1911967263       12.9240031884       11.0839794091
  C        28.9090599594       12.1830409480       12.0344221429
  C        28.3051115448       11.1098836329       12.6850230767
  C        26.9695184827       10.7534829964       12.4084746030
  C        26.2735929059       11.4749269101       11.4220904217
  C        26.8749171893       12.5486788638       10.7706894576
  C        26.2965023284        9.6747439494       13.1674262679
  C        26.2801220765        9.7029443591       14.5881777413
  C        26.7806466965       10.8171860559       15.3336173371
  C        32.1816719566       21.2362333341       10.1429482861
  C        32.7773993427       22.4000318830       10.8644425337
  C        32.0274849215       23.0815040848       11.8354099106
  C        32.5978318896       24.1209211719       12.5639664162
  C        33.9337715423       24.5072793250       12.3422992381
  C        34.6663846411       23.8445143819       11.3395014588
  C        34.0984439165       22.7995449949       10.6129738857
  C        34.5616094625       25.5837490371       13.1424395221
  C        34.5506508283       25.5577645679       14.5642717623
  C        34.0383293667       24.4450413741       15.3035431424
  C        25.6712437426        8.6247944059       15.3068121852
  C        25.6623871068        8.6228809750       12.4934571284
  C        32.1035470339       21.2284538184        5.8833463403
  C        32.6918920838       22.3853207064        5.1463716791
  C        31.9572212538       23.0402754858        4.1458664550
  C        32.5362873014       24.0698805491        3.4078139871
  C        33.8637643999       24.4735867006        3.6511364055
  C        34.5804014754       23.8328325281        4.6802601190
  C        34.0061282259       22.7982409790        5.4143080908
  C        34.5040390542       25.5527185270        2.8639913669
  C        34.5202429126       25.5421136560        1.4418162070
  C        34.0226164117       24.4380790729        0.6804516082
  C        40.6200298827       17.0916878876        0.7626886534
  C        40.6025969864       17.1114305723        3.5726558947
  C        28.7386803438       14.0660954631        5.8194451534
  C        28.1294531675       12.9202501601        5.0815838700
  C        28.8552245568       12.2421702069        4.0903643508
  C        28.2723453827       11.1874021192        3.3920586838
  C        26.9479595225       10.7854631062        3.6586067119
  C        26.2396338202       11.4524396330        4.6760067460
  C        26.8205840546       12.5071162856        5.3767162461
  C        26.3024748889        9.6978000177        2.8858871784
  C        26.2845795113        9.7152296929        1.4641818353
  C        26.7805852060       10.8244906575        0.7095009526
  C        18.1354003826        3.1808885495       10.3171594256
  C        17.4061162986        4.2781825986       11.0158397185
  C        16.3903319767        3.9998513556       11.9432753505
  C        15.7425954052        5.0398556138       12.6067448221
  C        16.0946301725        6.3835483138       12.3671360176
  C        17.0840694950        6.6530514705       11.4034321738
  C        17.7331626429        5.6156821238       10.7384190525
  C        15.4703076081        7.4912796460       13.1301426439
  C        15.4856680277        7.4906730033       14.5518521393
  C        16.1872202547        6.4970509365       15.3050214421
  C        42.9459297238       31.8595110720       10.0728675168
  C        43.6463627157       30.7718566050       10.8168045522
  C        44.5920335935       31.0931758368       11.8027336134
  C        45.1977605205       30.0876305496       12.5503848969
  C        44.8711587800       28.7345895396       12.3356714507
  C        43.9451042713       28.4202458087       11.3226741435
  C        43.3362658316       29.4253939968       10.5746525951
  C        45.4887626967       27.6553030572       13.1388724552
  C        45.4929521231       27.6809425163       14.5605651857
  C        44.8058795104       28.6890046279       15.3071784262
  C        14.8567145230        8.5631843816       15.2641967747
  C        14.8749802019        8.5630052316       12.4515326527
  C        42.9464324616       31.9615601076        5.8089865810
  C        43.6916291047       30.8854407119        5.0954287191
  C        44.6564339205       31.1913443722        4.1233410754
  C        45.2779875699       30.1717612041        3.4056324176
  C        44.9540007654       28.8214616383        3.6430637939
  C        44.0202437643       28.5237847251        4.6535781816
  C        43.3919547469       29.5405526408        5.3657340908
  C        45.5630948999       27.7240721180        2.8578273065
  C        45.5334489375       27.7174041049        1.4365277942
  C        44.8271353669       28.7076411289        0.6835717413
  C        35.1290838166       26.6327215857        0.7365145984
  C        35.1152947201       26.6113977689        3.5462814021
  C        18.1485805623        3.2469545236        5.7065760603
  C        17.4299495072        4.3438369735        4.9973029837
  C        16.4146833443        4.0525933274        4.0738039439
  C        15.7663675052        5.0832521074        3.3984420809
  C        16.1211776503        6.4284562641        3.6210760164
  C        17.1126283674        6.7118099279        4.5782596694
  C        17.7603075485        5.6828748832        5.2579877137
  C        15.4907234252        7.5241907092        2.8486462314
  C        15.4966769554        7.5076092575        1.4275149293
  C        16.1934353029        6.5058873248        0.6808354703
  H        10.6726041904       12.4661229586        3.9042003672
  H        11.6948461777       10.5513339439        2.6623129352
  H        15.3914990749       11.1681959770        4.7727095018
  H        14.3510010663       13.0709786302        6.0179598653
  H        13.3763710747       11.6313152194        1.2012615829
  H        50.3227303553       22.7483132557        3.9867276450
  H        49.3196151658       24.6228128417        2.6807729306
  H        45.6422580998       24.1613546633        4.8638747830
  H        46.6630973770       22.2904001690        6.1720910846
  H        47.6298798363       23.5758814399        1.2461789340
  H        14.8720735519        8.5882456257        4.6085390720
  H        50.2871506162       22.7026198884       12.0604380590
  H        49.2691778715       24.5755288007       13.3604176520
  H        45.6106492275       24.1093629476       11.1458935375
  H        46.6527280979       22.2540331566        9.8316768499
  H        47.6078623660       23.5518496343       14.7968653041
  H        40.6517924010       17.1126975348       11.4209064658
  H        48.6871574377       14.0948538385        7.8000551356
  H        10.6814442867       12.4668292777       12.0935475165
  H        11.6897226211       10.5249193300       13.2972528043
  H        15.3933342309       11.1584754636       11.2050696783
  H        14.3648181597       13.0869288929        9.9897993324
  H        13.3760171348       11.6222460151       14.7530663915
  H        47.9302153828       14.2181557427        9.7107770475
  H        47.7800527422       14.3736406595        6.4953642497
  H        49.0835788610       18.5524476066       10.8673411731
  H        10.4160894384       14.1343189917        7.9987152315
  H        24.4785858062        3.0325134910        3.9106644640
  H        25.6142618766        4.8950298472        2.6844688248
  H        23.2441652907        7.7560185142        4.8514336182
  H        22.1262554590        5.8838156420        6.0785086254
  H        23.7947019934        5.8014697234        1.2661534726
  H        36.3784165622       32.1897553041        3.9657405756
  H        35.2532163242       30.3656671121        2.6855006015
  H        37.5106076080       27.4406897485        4.8878178869
  H        38.6161556218       29.2774694947        6.1767173069
  H        37.0241304522       29.4504681652        1.2714365634
  H        25.7360552163        8.6114255158        4.6506372381
  H        36.4543591349       32.2393590227       12.1110753835
  H        35.3427321650       30.4203923350       13.4048809796
  H        37.5288736903       27.4861267883       11.1423565354
  H        38.6152807004       29.3167108270        9.8359350729
  H        37.0443963782       29.4674381427       14.8232886354
  H        46.1092812508       26.5875694023       11.3855597423
  H        44.6682040387       35.1161680273        7.8139749648
  H        24.4301634382        3.0461707375       12.0939822176
  H        25.5544478877        4.8899736416       13.3450185740
  H        23.1553547826        7.7707449555       11.2374304362
  H        22.0423737447        5.9149007530        9.9868125522
  H        23.7710291533        5.8035136288       14.8172392287
  H        44.9537065495       34.3904053669        9.6952557359
  H        44.9016839600       34.2067599342        6.4906824042
  H        40.6656873657       33.2087091745       10.8529689506
  H        23.1503314485        1.9578842612        8.0053553318
  H        25.7963514468       19.6685770432        3.9290450650
  H        23.6301525420       19.7041057974        2.6956707720
  H        22.3596875168       16.1973873919        4.8373083565
  H        24.5357463670       16.1709542896        6.0647618511
  H        23.7233675627       17.6681576430        1.2488142332
  H        35.1724028152       15.4087937621        4.0189522850
  H        37.2889085863       15.3720090173        2.7021796561
  H        38.6826415161       18.8183755728        4.8661248291
  H        36.5560364126       18.8416267448        6.1835597528
  H        37.2251702281       17.3465362199        1.2457295263
  H        20.3540542053       17.9660325269        4.6689094365
  H        35.2053566430       15.4260012845       12.0444891205
  H        37.3392305948       15.3629353121       13.3404758324
  H        38.7211919529       18.8363561324       11.2131146810
  H        36.5828732341       18.8791272123        9.9128453096
  H        37.2413896223       17.3477634384       14.7938625254
  H        35.1516642764       26.6765755186       11.3943684384
  H        28.5019591281       21.0854796441        7.8848420432
  H        25.7568397333       19.6305256080       12.1607538053
  H        23.5721635265       19.6838830167       13.3759720352
  H        22.3068824686       16.1728895263       11.2386631665
  H        24.4925955808       16.1404120614       10.0208122296
  H        23.7037597389       17.6545551704       14.7992317824
  H        29.0044005756       21.7237133449        9.7439211448
  H        29.1854660997       21.7242146938        6.5601022854
  H        32.0828195316       18.5541369896       10.9273768549
  H        27.4065912985       19.0740505332        8.0829888545
  H        14.8521856776       19.6479341531       12.1401995726
  H        17.0153023653       19.6927419749       13.3819754772
  H        18.3037603589       16.1860226384       11.2509042675
  H        16.1365305999       16.1569042929       10.0089147037
  H        16.9224731940       17.6930146958       14.8444929748
  H        46.0935061994       15.4395278433       12.0647101010
  H        43.9698389122       15.3819992703       13.3746023621
  H        42.5571370376       18.8226240515       11.2132463885
  H        44.6805680835       18.8542104973        9.8921244635
  H        44.0273902547       17.3208232064       14.8384587096
  H        20.2952357393       17.9206385642       11.4210760746
  H        46.0421567020       15.3818338331        4.0410313658
  H        43.9107925291       15.3170887794        2.7454493037
  H        42.5200701775       18.7863775742        4.8738792866
  H        44.6578112878       18.8371574863        6.1705897376
  H        44.0115026001       17.2989721618        1.2879398834
  H        46.1991444915       26.6826227956        4.6233449437
  H        52.7411500491       21.0626392972        8.1946951591
  H        14.8805070200       19.6733212461        3.8974232269
  H        17.0811604993       19.7436982622        2.7165638352
  H        18.3305212588       16.2211713266        4.8441989809
  H        16.1320271456       16.1748799095        6.0347200780
  H        16.9413748732       17.7065421378        1.2921158673
  H        52.3224570316       21.6732896394        6.2943208329
  H        52.0132680361       21.7020851876        9.4957193518
  H        49.0674034581       18.6078156695        5.2041944255
  H        13.2474556223       19.0164280210        7.9772230831
  H        29.9390739141       12.4612425168       12.2467403220
  H        28.8631769869       10.5340952031       13.4202245987
  H        25.2417124159       11.2094804777       11.2013982027
  H        26.3355226870       13.1270416842       10.0246577294
  H        27.1413049361       11.6868488437       14.7928859880
  H        31.0010100413       22.7710009141       12.0143301905
  H        32.0110423441       24.6482076666       13.3129539329
  H        35.7003890238       24.1335195932       11.1626669571
  H        34.6695687462       22.2627556323        9.8589660250
  H        33.6811805545       23.5762523472       14.7580241755
  H        25.6955835837        8.6018986549       11.4055748411
  H        30.9367122683       22.7185039592        3.9510662596
  H        31.9601615142       24.5782303176        2.6377259201
  H        35.6078557429       24.1338707168        4.8740970378
  H        34.5653288308       22.2808559532        6.1904330458
  H        33.6533266300       23.5637066771        1.2088050039
  H        40.5959485508       17.0795475485        4.6605074676
  H        32.5054289753       14.1460055957        8.2467967899
  H        29.8763653564       12.5541484639        3.8836083205
  H        28.8436659596       10.6577592433        2.6328837996
  H        25.2146998719       11.1552230536        4.8884006962
  H        26.2705652024       13.0379199083        6.1501743933
  H        27.1412486509       11.6998023652        1.2417176645
  H        33.3054130136       14.2265946119        6.4614657093
  H        33.4078392639       14.4135136162        9.5939669745
  H        32.1469574836       18.5237750036        5.1343439884
  H        30.1924357404       14.1553429645        8.0766600731
  H        16.1181893565        2.9633514419       12.1295963661
  H        14.9530642283        4.8204890549       13.3223224407
  H        17.3665581750        7.6859212433       11.2103719889
  H        18.5152289832        5.8182699613       10.0105863414
  H        16.7537157972        5.7396729898       14.7715085530
  H        44.8284784485       32.1402472840       11.9767554367
  H        45.9377639344       30.3413588990       13.3062013271
  H        43.6821979581       27.3781995738       11.1527360170
  H        42.5994886694       29.1900623046        9.8101397469
  H        44.2305165019       29.4367511291       14.7688531754
  H        14.8511145589        8.5461353680       11.3633155843
  H        44.9001497206       32.2340169638        3.9320683149
  H        46.0250427634       30.4129770005        2.6525400869
  H        43.7630476143       27.4840726033        4.8449231305
  H        42.6452494840       29.3177535032        6.1239771931
  H        44.2686083717       29.4705127805        1.2181615624
  H        35.0728430367       26.6251496069        4.6337228886
  H        36.6050258766       35.1339866205        8.1805902983
  H        16.1434969519        3.0130222120        3.9041899805
  H        14.9739699877        4.8564261737        2.6884273733
  H        17.3962263671        7.7472690659        4.7550574225
  H        18.5432447752        5.8932660316        5.9827006201
  H        16.7647955143        5.7556100743        1.2193026819
  H        36.2783968686       34.4825889026        6.2732540289
  H        36.3805351284       34.2092738084        9.4998195883
  H        40.5801029450       33.2022920304        5.1537037839
  H        17.4705317466        1.9471379926        7.9741381472
  H        29.1699498586       19.3513831220       12.5115253688
  H        28.8116147645       18.9095553739        3.7685586258
  H        32.1573366001       16.0752752152        3.5807061837
  H        31.4786189252       15.6823758146       12.5329831498
  H        27.8823784118       17.6496344480       14.0792266028
  H        29.4954034839       15.2498780235       14.2393572067
  H        32.4894210000       17.6303513542        1.0855186583
  H        30.3018599574       15.1722909509        2.4503889154
  H        18.8525642511        0.8687080311       12.3351545180
  H        40.5279196808       35.2290814116        3.9521176706
  H        42.3239138322       34.4188190095        3.5906230700
  H        22.0875177990        0.6916940778       12.3517550184
  H        11.5969622678       18.7130018806       12.3825273679
  H        52.2647995472       18.4312239789        3.6772201875
  H        49.2552484837       16.4770617304        3.5845593232
  H        10.1504176046       15.7981689840       12.2927077366
  H        50.8499982586       17.6923676868        3.9543007575
  H        10.0461839983       17.3944634400       12.0519776016
  H        20.2135450701        0.0018500609       12.0421467709
  H        39.1836191322       36.1243610271        3.6862958148
 Ni        30.6491929308       17.7419592883        2.7492464728
 Ni        30.7753628046       16.3080970846        0.0839372528
 Ni        29.2557676420       18.0097619859        0.0845891267
 Ni        30.0186611252       17.3222547391       13.0771693646
  O        10.6499590184       14.3651205753        5.4858405493
  O        12.6131895519       14.6575195063        6.5839010198
  O        49.1479286357       16.8459310545        7.9897708295
  O        50.3502336420       20.9358364192        5.6480844123
  O        48.3485092448       20.5933361809        6.6659255757
  O        11.0516812709       17.0539296876        6.5006859712
  O        50.3210471206       20.8816052542       10.4068195750
  O        48.3467364647       20.5867881792        9.3271614325
  O        49.5436633135       18.2484224490       10.0682792589
  O        12.3590186130       18.6246221287        7.9997595026
  O        48.6932766216       14.1485526328        6.7513239015
  O         8.2099375245       14.2103461705        9.3224971220
  O        10.7354165640       14.5067597671       10.6643268157
  O        12.5718367473       14.5828684715        9.3285138396
  O        22.8445027004        2.0432443972        5.4871445913
  O        21.6051507674        3.5920896428        6.5899339913
  O        42.0581579799       34.1373608003        7.9790429488
  O        37.9818457059       33.1388209309        5.5727343435
  O        39.2181161249       31.5764971516        6.6666552413
  O        20.3083669412        1.0394485165        6.5020302659
  O        38.0245641031       33.1854801342       10.4152151638
  O        39.2191865786       31.5837428366        9.3263983055
  O        40.6522285188       33.7692513229       10.0602349153
  O        18.2553187221        1.3761033858        7.9968048767
  O        44.6222344257       35.1005443849        6.7587738704
  O        24.2053477257        0.0000563041        9.3208444523
  O        22.7529231256        2.0583492130       10.5840448025
  O        21.6240417421        3.5957814069        9.3419305345
  O        27.4937824946       18.7509423345        5.4923944068
  O        26.7621476778       16.9360623678        6.6534727587
  O        30.6660155363       19.4062429424        8.0143243644
  O        33.5797332759       16.2739803215        5.6592231481
  O        34.2749231127       18.1615812214        6.7307096497
  O        29.5767589838       17.0545046695        6.5755269298
  O        33.6024480402       16.3233833309       10.4066629821
  O        34.3025729311       18.2417732587        9.4031745427
  O        31.6567063308       18.3164651968       10.0861282904
  O        30.2983062452       15.1201522277        8.0806833340
  O        28.5516931044       21.0348805963        6.8335296820
  O        28.5147966982       20.9552376212        9.4045702727
  O        27.4609905936       18.6792587418       10.6585204099
  O        26.6948480025       16.9290969692        9.4121790067
  O        13.1493001663       18.6928242449       10.5875998577
  O        13.9196177329       16.9162099818        9.4051221546
  O        50.5961260169       19.3502477349        8.0206143468
  O        47.6839558953       16.3267549546       10.4170672498
  O        46.9515405615       18.1756859923        9.3249142147
  O        11.0697402472       17.0156126818        9.4897043303
  O        47.6764772025       16.3355384316        5.6533381460
  O        46.9270084020       18.2357804427        6.6644104592
  O        49.5686434327       18.3177186525        5.9823325780
  O        10.3187303058       15.1001655544        7.9971230833
  O        52.6707632009       21.0278799660        9.2418351957
  O        12.1468315867       20.8911776735        6.6732309926
  O        13.1080636939       18.6136493077        5.3256403213
  O        13.9569362772       16.9868179672        6.6655833113
  O        29.9930198092       14.4439649893       10.7324956945
  O        28.0880502032       14.6540870968        9.4963349415
  O        32.0768960132       16.8566240859        8.0508563757
  O        30.9650968870       20.9499352356       10.4060872941
  O        32.9465127110       20.5992685245        9.3342509057
  O        29.5646127400       17.0728811190        9.5722249129
  O        30.8753287961       20.9435840172        5.6586715344
  O        32.8798069200       20.5842034634        6.6649408646
  O        31.6778785589       18.2507596316        5.9383618692
  O        28.2922711073       18.6762575191        8.0686801737
  O        32.4916297652       14.2130654652        9.3263367241
  O        32.4034266957       14.2161771927        6.8233263160
  O        29.9121520527       14.4376153923        5.4870155981
  O        28.0341839123       14.5899914539        6.7513062270
  O        17.8891668789        1.9666074928       10.6628343197
  O        18.9561789224        3.5271335995        9.4079893947
  O        39.1686529153       34.1388186067        7.9972046202
  O        43.2802743853       33.0589412328       10.3317265280
  O        42.0345721961       31.5064281884        9.2416371567
  O        20.3175250640        1.0366139892        9.4803380116
  O        43.2761092483       33.1825523191        5.5748856062
  O        42.0052777263       31.5840530175        6.5829734837
  O        40.5790175926       33.7749182507        5.9358733055
  O        22.3673086185        1.3845385278        7.9979738137
  O        36.6727253435       35.0997615659        9.2332818728
  O        16.4454775635        0.0643516633        6.6683551735
  O        17.9364403544        2.0434030966        5.3263521353
  O        18.9189559835        3.5931587228        6.6659305141
  O        29.7324623689       18.8387949815        4.0796058414
  O        29.8632253522       18.8957068095       11.9956647850
  O        31.2964946713       16.2662488011        3.9976573126
  O        31.3437616276       16.4874315102       11.9959141243
  O        31.9420087220       16.9290417702        1.4796511523
  O        29.8770845716       14.9451088585        1.5836583286
  O        30.2811454202       15.8213391941       14.3038110358
  O        28.7266539811       18.1055958927       14.2473696851
  O        39.4567689990       35.2437783211        4.0019357090
  O        19.1404432994        0.0041518157       11.9906155787
  O        41.9696728644       35.1728099024        4.0871779254
  O        21.6910561734       -0.0695450055       11.8958630620
  O        51.3650122411       18.6143012043        4.0054272560
  O        10.7512093186       18.7471400843       11.9048945834
  O        50.0797297132       16.4128241168        4.0917466198
  O         9.5245591561       16.4830376560       11.9911998432
 Zr         9.2969737298       16.0527259939        6.1824829583
 Zr        49.8364125029       16.0066785997        9.7464245553
 Zr        22.0732246309        0.0296831619        6.1891157180
 Zr        42.4608257786       35.1533629377        9.8010250713
 Zr        29.6089039965       19.0853045090        6.2536476676
 Zr        29.5855568377       19.1825746171        9.8373720139
 Zr        11.0380160424       19.0520388661        9.8277763564
 Zr        11.0437221988       19.1549160000        6.2511609204
 Zr        31.3437211355       16.0981765346        9.8484441373
 Zr        31.3689446287       15.9985125230        6.2470072861
 Zr        18.6008828079       -0.0017731298        9.7632660416
 Zr        18.5063576891       -0.0077625235        6.2136932465
 Zr        12.3019144800       16.3235260986        7.9904362989
 Zr        48.6164097879       18.8332171331        8.0103575730
 Zr        20.3149053079        2.4730019631        7.9905124579
 Zr        40.6433174244       32.6868982332        7.9783150308
 Zr        28.3446753593       16.3355097508        8.0843767766
 Zr        32.6242923399       18.8359454837        8.0377112732
  H        28.9711039974       15.2904289253        1.6781834469
  H        29.4093203629       18.1052237869        1.6209873179
