     566
 i =      129, E =     -4712.2373790520
  C        11.8588454331       14.0536398732        5.7415546199
  C        12.4563536961       12.8906586353        5.0233937651
  C        11.7045994406       12.1716486254        4.0818252606
  C        12.2809667830       11.1094585664        3.3894549134
  C        13.6215840256       10.7397384303        3.6171015860
  C        14.3548020753       11.4433793975        4.5904826646
  C        13.7819400879       12.5083703972        5.2820055528
  C        14.2611299868        9.6491094995        2.8436460141
  C        14.2563970014        9.6570234728        1.4219397806
  C        13.7431751901       10.7591336152        0.6680528055
  C        49.1269634604       21.2329734828        5.8796440296
  C        48.5502878834       22.4010193553        5.1526108725
  C        49.3003196209       23.0683261191        4.1716042552
  C        48.7334315377       24.1075229305        3.4384353140
  C        47.4029258647       24.5092615387        3.6671091428
  C        46.6719818127       23.8604181544        4.6806518807
  C        47.2343901707       22.8154602384        5.4099687531
  C        46.7726748194       25.5869968972        2.8698598768
  C        46.7615758976       25.5573867387        1.4480896748
  C        47.2614637468       24.4422902117        0.7045682043
  C        14.8604021259        8.5707379674        0.7086464873
  C        14.8920068687        8.5971951454        3.5202648625
  C        49.1131611961       21.2033626812       10.1452901613
  C        48.5277541305       22.3647273235       10.8724742088
  C        49.2670146540       23.0254796045       11.8653448989
  C        48.6907072119       24.0600416590       12.5968233017
  C        47.3602598676       24.4567689760       12.3586873447
  C        46.6398078611       23.8118113094       11.3352191475
  C        47.2133344851       22.7758901584       10.6034179005
  C        46.7218399131       25.5317808442       13.1497162300
  C        46.7336279510       25.5281679903       14.5714283449
  C        47.2491081722       24.4289715063       15.3278057039
  C        40.6168447474       17.0832573885       15.3194519413
  C        40.6335781388       17.1071718766       12.5093674925
  C        11.8830259374       14.0867067265       10.2853763496
  C        12.4724121711       12.9109296761       10.9896130587
  C        11.7149683545       12.1777837429       11.9158294825
  C        12.2815959722       11.0953751895       12.5842856780
  C        13.6204131838       10.7216351904       12.3524385202
  C        14.3583295886       11.4371588791       11.3915512292
  C        13.7928468541       12.5182652653       10.7187951306
  C        14.2540097262        9.6248637266       13.1228410390
  C        14.2526425061        9.6447677768       14.5446882967
  C        13.7426845800       10.7536570518       15.2917960984
  C        22.5087944762        3.2450004577        5.7518182214
  C        23.2145106660        4.3536869841        5.0493723038
  C        24.2116483063        4.0815341169        4.1012119970
  C        24.8291246677        5.1264255884        3.4185658846
  C        24.4642754232        6.4653502653        3.6633538678
  C        23.4947900218        6.7289612387        4.6479893929
  C        22.8733300459        5.6861931136        5.3294427303
  C        25.0616473073        7.5772270208        2.8895777865
  C        25.0440627566        7.5680445348        1.4678961669
  C        24.3521541423        6.5638795623        0.7188079922
  C        38.2966958255       31.9278833411        5.8526735907
  C        37.5516800690       30.8389743409        5.1536755011
  C        36.5861364377       31.1460861255        4.1823062027
  C        35.9532417605       30.1284951371        3.4730852651
  C        36.2698467956       28.7764262356        3.7111626886
  C        37.2038439123       28.4767864433        4.7211458760
  C        37.8407552020       29.4934565673        5.4298509430
  C        35.6600068884       27.6886170011        2.9100474807
  C        35.7053010099       27.7037792858        1.4880486573
  C        36.4208758019       28.7045523573        0.7575702436
  C        25.6661346670        8.6402445377        0.7505526122
  C        25.6435792403        8.6587498918        3.5632760022
  C        38.3316485426       31.9613448736       10.1609500656
  C        37.6171194226       30.8888639506       10.9128165726
  C        36.6856383076       31.1996102108       11.9155244996
  C        36.0767094562       30.1834409300       12.6499317568
  C        36.3842936397       28.8298706850       12.4057780446
  C        37.2977102937       28.5290039917       11.3765939531
  C        37.9084044433       29.5417178583       10.6432849620
  C        35.7678660110       27.7318188884       13.1865504284
  C        35.7603178496       27.7261485565       14.6091775111
  C        36.4458066893       28.7162276053       15.3809261173
  C        46.1356653705       26.6208208133       15.2815902784
  C        46.0878476052       26.5801394866       12.4736864765
  C        22.4625020669        3.2573940114       10.2580153873
  C        23.1584032679        4.3673970562       10.9788083173
  C        24.1616808726        4.0838185621       11.9193672085
  C        24.7901930686        5.1154593497       12.6133531734
  C        24.4363083134        6.4613903247       12.3901300589
  C        23.4566667785        6.7381556706       11.4175361888
  C        22.8235259134        5.7068697437       10.7240330987
  C        25.0637277450        7.5617603664       13.1658405913
  C        25.0452737093        7.5597419504       14.5887117823
  C        24.3498291406        6.5618315910       15.3419314556
  C        26.6813931403       17.8787065357        5.7296982795
  C        25.3813110178       17.9648248322        4.9985775513
  C        25.1472494878       18.9336686719        4.0102782044
  C        23.9189826386       18.9822247129        3.3499565660
  C        22.8910289899       18.0628025797        3.6484784880
  C        23.1258825839       17.1175631476        4.6652128466
  C        24.3501023078       17.0669411324        5.3267479139
  C        21.6080439233       18.0499532674        2.8990302497
  C        21.5971104493       17.9953571100        1.4770382767
  C        22.7962239435       17.8426918009        0.7114256940
  C        34.4171926068       17.2186424964        5.9112526547
  C        35.7103880937       17.1461010740        5.1736361505
  C        35.8944624512       16.1910754217        4.1610982142
  C        37.0787368294       16.1620956893        3.4293933317
  C        38.1096768318       17.0880887576        3.6854167730
  C        37.9270025647       18.0210250395        4.7249815559
  C        36.7423449618       18.0544916704        5.4564822353
  C        39.3638640056       17.0908444048        2.8972988800
  C        39.3596798855       17.1045808248        1.4745718898
  C        38.1536657097       17.2303567713        0.7157686311
  C        20.3454349566       18.0008267230        0.7769893743
  C        20.3856189881       18.0584755007        3.5894216576
  C        34.4430493143       17.2365784460       10.1908987787
  C        35.7429197751       17.1387015865       10.9138183464
  C        35.9444785944       16.1626573993       11.9014724043
  C        37.1348329292       16.1313291562       12.6240064072
  C        38.1526700203       17.0748087133       12.3801803722
  C        37.9566036129       18.0233783931       11.3586909975
  C        36.7659582303       18.0599890303       10.6390968010
  C        39.4016969286       17.0908063789       13.1744190224
  C        39.3793511065       17.1052793822       14.5961216678
  C        38.1629025529       17.2285166522       15.3389116562
  C        35.1197376391       26.6484232358       15.3067420946
  C        35.1826977463       26.6618232686       12.4969934878
  C        26.5674822708       17.8294577124       10.3277374825
  C        25.2524288155       17.8793944632       11.0307716240
  C        24.9880691980       18.8857656080       11.9724863271
  C        23.7695208244       18.9130096772       12.6449858868
  C        22.7850198842       17.9339395858       12.4012128416
  C        23.0437255516       16.9531621762       11.4262584944
  C        24.2627760617       16.9236961490       10.7513338081
  C        21.5231741882       17.9179381255       13.1782311752
  C        21.5539097118       17.9258219611       14.5997956174
  C        22.7753524492       17.8101992046       15.3358980180
  C        14.0453559722       17.8266053974       10.2926796835
  C        15.3456435240       17.8802205907       11.0264783876
  C        15.6016366653       18.8889182693       11.9686497230
  C        16.8084507314       18.9123116452       12.6653452833
  C        17.7943132930       17.9294986113       12.4431750604
  C        17.5410845504       16.9416387559       11.4724714520
  C        16.3340205373       16.9143053774       10.7764267698
  C        19.0664956514       17.9227486469       13.2080934899
  C        19.0730177326       17.9422286161       14.6308433182
  C        17.8709101982       17.8551946732       15.4011018117
  C        46.8025019231       17.2175137300       10.1592725499
  C        45.5107444341       17.1500519661       10.9043860192
  C        45.3075306560       16.1689183442       11.8876151012
  C        44.1249377098       16.1421761602       12.6227508498
  C        43.1132108972       17.0964888303       12.3981506699
  C        43.3138506730       18.0575128896       11.3883613915
  C        44.4973353518       18.0881249600       10.6539483773
  C        41.8586003551       17.0991109127       13.1873304721
  C        41.8637637587       17.0983585626       14.6100441427
  C        43.0720950053       17.1947419606       15.3694549611
  C        20.3236581941       17.9655489724       15.3319045646
  C        20.2871592006       17.8962769262       12.5189828469
  C        46.7826232294       17.2303232284        5.8886266778
  C        45.4779178152       17.1198144766        5.1740465536
  C        45.2600529296       16.1171318164        4.2165866068
  C        44.0708156834       16.0833420425        3.4919552973
  C        43.0680054120       17.0489530112        3.7068948516
  C        43.2763849168       18.0215314077        4.7029662557
  C        44.4668720139       18.0617259123        5.4227495412
  C        41.8201260555       17.0649192448        2.9100256357
  C        41.8440987489       17.0788669187        1.4884444966
  C        43.0627760521       17.1824313457        0.7464638361
  C        46.1535295946       26.6372726140        0.7263611793
  C        46.1627654098       26.6561348556        3.5360106154
  C        14.0530075985       17.8404031669        5.7126261129
  C        15.3820192923       17.9381695548        5.0337395790
  C        15.6490220083       18.9656147412        4.1155059052
  C        16.8812320045       19.0267482709        3.4666739067
  C        17.8790145550       18.0602707318        3.7076052161
  C        17.6194622661       17.0630288091        4.6661634888
  C        16.3889758347       17.0015406293        5.3193142011
  C        19.1468121677       18.0515259926        2.9323029736
  C        19.1145468833       18.0082569352        1.5101111299
  C        17.8911670064       17.8849579590        0.7772442010
  C        28.8081721570       14.0873784880       10.3642275636
  C        28.1987636882       12.9215498726       11.0646601859
  C        28.9111245480       12.2076239137       12.0395340391
  C        28.3112382087       11.1367479355       12.6978528197
  C        26.9850700676       10.7563523374       12.4070194917
  C        26.2946265750       11.4536357185       11.3991331867
  C        26.8915242804       12.5243800502       10.7392757252
  C        26.3128790041        9.6780436634       13.1681583564
  C        26.2856891053        9.7098188007       14.5893446947
  C        26.7776755788       10.8267338105       15.3370494982
  C        32.1774909173       21.2434675701       10.1512913631
  C        32.7711977256       22.4118416849       10.8663808796
  C        32.0211056900       23.0967007543       11.8351584282
  C        32.5920946574       24.1363134841       12.5629877785
  C        33.9296053968       24.5201816582       12.3445247357
  C        34.6619223232       23.8553971768       11.3426428129
  C        34.0932661910       22.8103981184       10.6163717996
  C        34.5578107356       25.5934033844       13.1497650412
  C        34.5356547182       25.5650321749       14.5716890796
  C        34.0209743080       24.4492410772       15.3041964405
  C        25.6729841564        8.6316329971       15.3055659171
  C        25.6841351969        8.6229939002       12.4926406864
  C        32.0856647644       21.1624360452        5.8317980578
  C        32.6420944087       22.3334926083        5.0973288499
  C        31.9117750442       22.9789841827        4.0869381456
  C        32.4798547166       24.0322813634        3.3723105822
  C        33.7920709202       24.4694196357        3.6451454604
  C        34.5005770914       23.8392178126        4.6868063327
  C        33.9382155068       22.7845159098        5.3989221520
  C        34.4342814587       25.5582997656        2.8715686717
  C        34.4709552417       25.5475869203        1.4492009461
  C        33.9896153512       24.4411791105        0.6806626373
  C        40.6063494439       17.0778490833        0.7649633805
  C        40.5891176983       17.0870171943        3.5752675396
  C        28.7001156253       14.0834796497        5.8248391016
  C        28.0778847580       12.9470813062        5.0889549345
  C        28.8156942789       12.2360814471        4.1288781830
  C        28.2295490123       11.1865811686        3.4272612779
  C        26.8906928253       10.8157243440        3.6634764553
  C        26.1693690173       11.5122505169        4.6516500000
  C        26.7522335263       12.5669758720        5.3522928445
  C        26.2534847518        9.7238192828        2.8884163924
  C        26.2580116377        9.7326656114        1.4662178995
  C        26.7630041697       10.8389209113        0.7132068551
  C        18.1353854614        3.1810157590       10.3172636439
  C        17.4061566296        4.2782651783       11.0158606066
  C        16.3902630744        4.0000277210       11.9432353608
  C        15.7425909738        5.0400843260       12.6066619550
  C        16.0947435281        6.3837743957       12.3671045069
  C        17.0843136035        6.6531787862       11.4035012640
  C        17.7333639462        5.6157644038       10.7385191384
  C        15.4704370313        7.4915197294       13.1301199702
  C        15.4856692624        7.4907884956       14.5518328970
  C        16.1872573296        6.4971844475       15.3049837400
  C        42.9458213978       31.8595754108       10.0728698246
  C        43.6461828995       30.7718687504       10.8168262677
  C        44.5916155797       31.0932002725       11.8029933798
  C        45.1973430459       30.0876690546       12.5506718010
  C        44.8710495167       28.7345753124       12.3357637089
  C        43.9453592989       28.4202234503       11.3224138115
  C        43.3365437752       29.4253511332       10.5743431788
  C        45.4886571172       27.6552810453       13.1389715856
  C        45.4929284594       27.6809445495       14.5606766543
  C        44.8059309746       28.6890202073       15.3073460162
  C        14.8566556069        8.5632440578       15.2642122900
  C        14.8752398515        8.5633408364       12.4515351260
  C        42.9465166980       31.9616610139        5.8090018972
  C        43.6918652181       30.8855255585        5.0956421662
  C        44.6564254212       31.1914563050        4.1233042646
  C        45.2780134946       30.1718861030        3.4056018354
  C        44.9543956238       28.8215344443        3.6433012745
  C        44.0209929717       28.5238574835        4.6541623959
  C        43.3926577274       29.5406014613        5.3663223477
  C        45.5634128163       27.7241385249        2.8579998412
  C        45.5336251475       27.7174486177        1.4366920434
  C        44.8272995382       28.7076809662        0.6837416101
  C        35.0889738965       26.6386819172        0.7521659119
  C        35.0410145155       26.6158724551        3.5625444262
  C        18.1486524445        3.2470836590        5.7066192217
  C        17.4301969369        4.3439245922        4.9972392022
  C        16.4148948296        4.0527215218        4.0737468702
  C        15.7666150236        5.0833904886        3.3983928799
  C        16.1214421645        6.4286003929        3.6210212814
  C        17.1129969386        6.7119286228        4.5781132630
  C        17.7606236986        5.6829733231        5.2578612809
  C        15.4908595514        7.5243001129        2.8486418592
  C        15.4966914817        7.5076645795        1.4275102350
  C        16.1934939815        6.5060027568        0.6807961448
  H        10.6724350787       12.4656967601        3.9048825552
  H        11.6946397154       10.5509215771        2.6629890720
  H        15.3918963667       11.1689258085        4.7720768470
  H        14.3515241903       13.0717475162        6.0172331869
  H        13.3761091679       11.6312258842        1.2013806117
  H        50.3229972475       22.7482275478        3.9867938259
  H        49.3199400105       24.6227658203        2.6808590269
  H        45.6425189200       24.1612531543        4.8638850722
  H        46.6633627743       22.2902337514        6.1720629138
  H        47.6300395805       23.5759153246        1.2462317760
  H        14.8724475958        8.5884697265        4.6085735849
  H        50.2870875179       22.7026787515       12.0601977316
  H        49.2691532026       24.5755310055       13.3602646432
  H        45.6103753006       24.1089985808       11.1462221724
  H        46.6524526876       22.2536711512        9.8319338817
  H        47.6078676412       23.5518465257       14.7969025249
  H        40.6396030542       17.0733811345       11.4215339994
  H        48.6870595510       14.0950233701        7.7999973098
  H        10.6814907873       12.4668208072       12.0932449104
  H        11.6898151367       10.5249829214       13.2969928001
  H        15.3937692688       11.1593079676       11.2056019792
  H        14.3651575546       13.0875543588        9.9901742297
  H        13.3758622746       11.6222905879       14.7531889825
  H        47.9301288510       14.2186930557        9.7108562166
  H        47.7799721656       14.3737173323        6.4952245233
  H        49.0833147947       18.5520160483       10.8671155461
  H        10.4160912793       14.1344441458        7.9986863672
  H        24.4810230564        3.0451496873        3.9099884024
  H        25.6034510373        4.9156005935        2.6841461668
  H        23.2055573613        7.7595280361        4.8431092622
  H        22.1029091763        5.8800057724        6.0716617085
  H        23.7907378328        5.8054602406        1.2566047099
  H        36.3566790472       32.1903889995        3.9838891403
  H        35.2062761346       30.3728884222        2.7209444988
  H        37.4571459687       27.4364114401        4.9145648355
  H        38.5876028856       29.2672262746        6.1873187418
  H        36.9811340342       29.4537458908        1.3092732490
  H        25.6706314798        8.6436574669        4.6513440369
  H        36.4579230059       32.2441455647       12.1158744309
  H        35.3472766616       30.4313839567       13.4178610610
  H        37.5494817163       27.4885974993       11.1817987478
  H        38.6339696705       29.3131582931        9.8663824113
  H        37.0261518952       29.4740484729       14.8623261307
  H        46.1092411309       26.5875197679       11.3856490564
  H        44.6683330324       35.1162833285        7.8139935068
  H        24.4397868061        3.0460272108       12.0888591673
  H        25.5709518617        4.8871854951       13.3358137382
  H        23.1711674599        7.7721999313       11.2351379752
  H        22.0514089121        5.9192504646        9.9881240653
  H        23.7861412289        5.8023200260       14.8079814340
  H        44.9541268352       34.3907559793        9.6954674658
  H        44.9020557917       34.2070462360        6.4905458078
  H        40.6668140056       33.2093956282       10.8533102594
  H        23.1501331845        1.9583422712        8.0050373103
  H        25.9369339916       19.6425732865        3.7710024118
  H        23.7439578014       19.7421277391        2.5913967985
  H        22.3481392532       16.3958596349        4.9064030379
  H        24.5365450193       16.3234373819        6.0975948622
  H        23.7394701251       17.7180450764        1.2351380084
  H        35.0917142980       15.4874860268        3.9520465309
  H        37.2184443780       15.4131286057        2.6530241466
  H        38.7134068520       18.7447553862        4.9289909506
  H        36.5876694917       18.7910700412        6.2415092814
  H        37.2141268157       17.3599712870        1.2451424027
  H        20.3993823452       18.1158879119        4.6765435991
  H        35.1501931567       15.4472066638       12.1022142507
  H        37.2881733926       15.3714883143       13.3872057402
  H        38.7346341164       18.7586319840       11.1640686574
  H        36.5958214562       18.8118692162        9.8723865253
  H        37.2304356259       17.3554236193       14.7965313553
  H        35.1667343955       26.6883170518       11.4090697454
  H        28.5139248401       21.0884057636        8.0062158753
  H        25.7499535737       19.6390473812       12.1598548029
  H        23.5655516825       19.6973298803       13.3706874798
  H        22.2933008858       16.1897104257       11.2313247284
  H        24.4774813961       16.1531903592       10.0146918427
  H        23.7022586557       17.6625343400       14.7898487868
  H        29.0230499541       21.7112886957        9.7546750886
  H        29.0864826275       21.7841100104        6.6047765158
  H        32.0516477092       18.5425732925       11.0176646586
  H        27.4020626851       19.0880342861        8.0858054740
  H        14.8450343856       19.6517644450       12.1381995410
  H        17.0034759969       19.7028628755       13.3868255306
  H        18.2905242828       16.1735474482       11.2925779524
  H        16.1289422015       16.1397698959       10.0411563930
  H        16.9251187416       17.7313061323       14.8815406219
  H        46.0937036219       15.4398326491       12.0692510817
  H        43.9703848241       15.3726991259       13.3759969425
  H        42.5422151176       18.8033967166       11.2091143695
  H        44.6660034992       18.8450452325        9.8914287313
  H        44.0139042856       17.3098822794       14.8405575457
  H        20.2741587569       17.9128569442       11.4306089009
  H        46.0386691541       15.3782457389        4.0411986862
  H        43.9064628353       15.3047899748        2.7501348321
  H        42.5081537035       18.7722278926        4.8764455523
  H        44.6471823670       18.8320580251        6.1685912668
  H        43.9975685920       17.2869617280        1.2896075463
  H        46.1996954174       26.6826887358        4.6234530683
  H        52.7410673323       21.0626926689        8.1946781302
  H        14.8795267348       19.7104629049        3.9246096353
  H        17.0816234304       19.8262662353        2.7565109331
  H        18.3786170295       16.3087948176        4.8632871699
  H        16.1779729318       16.2166454645        6.0418081042
  H        16.9607178585       17.7839296270        1.3278570540
  H        52.3221115494       21.6730771257        6.2943625592
  H        52.0131568603       21.7018682127        9.4958125986
  H        49.0675682056       18.6070973416        5.2041067305
  H        13.2476820522       19.0167700406        7.9789536200
  H        29.9301966753       12.5085086211       12.2715411892
  H        28.8663378442       10.5821680091       13.4512719354
  H        25.2696340084       11.1717026605       11.1672538676
  H        26.3547167414       13.0832542387        9.9767554544
  H        27.1429702992       11.6960192125       14.7985740458
  H        30.9942478857       22.7881056225       12.0151720230
  H        32.0047968454       24.6644046515       13.3109988900
  H        35.6970152469       24.1413798895       11.1671581731
  H        34.6662769303       22.2718574856        9.8650902195
  H        33.6752280674       23.5782542003       14.7547868963
  H        25.7239360093        8.6004892109       11.4049891486
  H        30.9036309590       22.6367547165        3.8642846363
  H        31.9055159931       24.5316536639        2.5950951184
  H        35.5156324512       24.1635651156        4.9064175490
  H        34.4944558445       22.2786428460        6.1843149578
  H        33.6206953087       23.5626576073        1.2021142399
  H        40.5835245433       17.0489499607        4.6629604391
  H        32.5170623554       14.1519659177        8.2491847789
  H        29.8515396787       12.5144610919        3.9500155017
  H        28.8092493869       10.6343400157        2.6908546532
  H        25.1333721045       11.2387023338        4.8409008743
  H        26.1903590767       13.1210297894        6.1006458301
  H        27.1150371677       11.7179738102        1.2455081359
  H        33.2908037241       14.1931833638        6.4287863582
  H        33.4088825686       14.3870340719        9.6072177833
  H        32.0803930733       18.5322653529        5.1055606840
  H        30.2391000782       14.1969588930        8.0734415879
  H        16.1179853200        2.9635660877       12.1295482803
  H        14.9530132414        4.8208109528       13.3222119260
  H        17.3670130767        7.6860059183       11.2105249265
  H        18.5155872839        5.8183655179       10.0108591806
  H        16.7538973806        5.7399148396       14.7714750374
  H        44.8278509182       32.1402866062       11.9772265021
  H        45.9371714132       30.3414824767       13.3066347201
  H        43.6828384999       27.3781302903       11.1521696174
  H        42.6001443356       29.1899696425        9.8094812823
  H        44.2306160467       29.4368449148       14.7690792778
  H        14.8515682698        8.5466391645       11.3633124008
  H        44.8998867004       32.2341426507        3.9317691307
  H        46.0248869090       30.4131732897        2.6523500414
  H        43.7641818728       27.4841115511        4.8458403569
  H        42.6462217440       29.3177602331        6.1248170981
  H        44.2689004759       29.4706408090        1.2183341244
  H        34.9872852370       26.6283192591        4.6495963332
  H        36.6052921145       35.1340604960        8.1804925813
  H        16.1436765134        3.0131691083        3.9041076189
  H        14.9741797963        4.8566157792        2.6884091914
  H        17.3966998913        7.7473663226        4.7548700596
  H        18.5436236670        5.8934147641        5.9824936040
  H        16.7650244505        5.7558267452        1.2192211475
  H        36.2790618582       34.4822889555        6.2730015047
  H        36.3809088993       34.2090186155        9.4993559599
  H        40.5794419857       33.2021899995        5.1541767790
  H        17.4710329226        1.9473235534        7.9741285936
  H        29.2655313573       19.4341419325       12.6405343221
  H        30.5660938063       15.2996672947        3.9809383710
  H        31.0909411954       15.5013011668       12.3748998663
  H        27.9592808069       17.6331046845       14.4139091715
  H        29.0728892101       15.3799201871       14.5369037252
  H        31.7016377796       16.7260779171        1.6070127213
  H        18.8527879020        0.8688556223       12.3350275741
  H        40.5282358850       35.2287389671        3.9520019678
  H        42.3246041742       34.4192713032        3.5902817475
  H        22.0875783242        0.6919132914       12.3518228108
  H        11.5970325366       18.7127418958       12.3820116306
  H        52.2650882525       18.4307839434        3.6771928594
  H        49.2551179065       16.4767933817        3.5844352295
  H        10.1495093462       15.7982768911       12.2931691671
  H        50.8501310657       17.6924540252        3.9542734869
  H        10.0458101049       17.3945951891       12.0519591766
  H        20.2138633424        0.0020667846       12.0421038811
  H        39.1839286874       36.1244758329        3.6864453684
 Ni        30.1444051095       17.0162907425        2.5811278126
 Ni        31.0719795558       16.0384083164       -0.4982698890
 Ni        29.5475460592       17.5973972382        0.2559226990
 Ni        29.9703045681       17.2589334322       13.2364404089
  O        10.6500413556       14.3651586544        5.4858907401
  O        12.6133094019       14.6577337677        6.5839153494
  O        49.1476708064       16.8459238374        7.9896867108
  O        50.3503634562       20.9355321236        5.6479933097
  O        48.3486006709       20.5931848322        6.6659225648
  O        11.0517838376       17.0536550923        6.5008301457
  O        50.3209546975       20.8816265813       10.4067823045
  O        48.3467258046       20.5866416764        9.3270490082
  O        49.5436030923       18.2483561393       10.0680356394
  O        12.3594125632       18.6244209400        7.9994272102
  O        48.6932077102       14.1486741404        6.7512761917
  O         8.2098653921       14.2105110851        9.3225684201
  O        10.7353539958       14.5067857583       10.6642694287
  O        12.5718242013       14.5829970035        9.3283388857
  O        22.8445607688        2.0443109354        5.4870333888
  O        21.6042616514        3.5915755459        6.5910996357
  O        42.0580807607       34.1374090633        7.9790982188
  O        37.9814018014       33.1367624845        5.5721270852
  O        39.2168689990       31.5749435604        6.6654072035
  O        20.3084802008        1.0397327226        6.5021975888
  O        38.0245380044       33.1852331425       10.4156222342
  O        39.2185533422       31.5830937701        9.3272798092
  O        40.6522455687       33.7692834603       10.0601442117
  O        18.2556163888        1.3760122288        7.9967813289
  O        44.6221567440       35.1006334875        6.7587983922
  O        24.2053515107        0.0000415286        9.3207945830
  O        22.7534028145        2.0589426287       10.5844639264
  O        21.6248582100        3.5966527364        9.3436675150
  O        27.6335241708       18.6900770112        5.4125905483
  O        26.7402591400       17.0035639753        6.6590326982
  O        30.6613907988       19.4097817286        8.0827368095
  O        33.5364052610       16.3325364311        5.6535537366
  O        34.2692109553       18.1827821310        6.7413686606
  O        29.5676834937       17.0686672384        6.5895869062
  O        33.5575461500       16.3406461402       10.4132805585
  O        34.3029492417       18.2413569322        9.4091003321
  O        31.6507528281       18.3168070877       10.1603455866
  O        30.3241926955       15.1645848271        8.0766652435
  O        28.5521297952       21.0326367799        6.9146943171
  O        28.5183312959       20.9532381873        9.4122723747
  O        27.4578051588       18.6795569637       10.6626716805
  O        26.6921080918       16.9321608658        9.4159421882
  O        13.1484008585       18.6930050072       10.5875971319
  O        13.9200636801       16.9164411128        9.4059172630
  O        50.5959607382       19.3499943394        8.0199796234
  O        47.6824619076       16.3272541492       10.4175312381
  O        46.9499171558       18.1755139404        9.3259209025
  O        11.0702000252       17.0151544438        9.4893631089
  O        47.6746052955       16.3358611708        5.6528513922
  O        46.9248344416       18.2358310539        6.6631758729
  O        49.5690202021       18.3176627031        5.9823660949
  O        10.3187582038       15.1002992231        7.9970798574
  O        52.6707703744       21.0278273613        9.2418150688
  O        12.1468352146       20.8911358335        6.6732444736
  O        13.1100531338       18.6140544123        5.3253106873
  O        13.9604159839       16.9885570608        6.6628989375
  O        30.0006445130       14.4333451836       10.6623954561
  O        28.0784807101       14.6589397495        9.4828857145
  O        32.0975095984       16.9095711714        8.0660778195
  O        30.9632333557       20.9513536596       10.4127024788
  O        32.9443313857       20.6051778818        9.3426078708
  O        29.5600052017       17.0848062363        9.5736751016
  O        30.8708045134       20.8036439508        5.5724115556
  O        32.8616814623       20.5844573142        6.6608352759
  O        31.6023630260       18.2488258654        5.9025421881
  O        28.2850003964       18.6824801421        8.0878181182
  O        32.4921612996       14.2143812222        9.3258007125
  O        32.4021902669       14.2209705519        6.8205966541
  O        29.8946946082       14.4160321609        5.5084147420
  O        28.0025208446       14.6465849567        6.7405543145
  O        17.8892058389        1.9665937579       10.6628350506
  O        18.9562009690        3.5271508867        9.4080515938
  O        39.1685637607       34.1386500408        7.9970693864
  O        43.2801463073       33.0589720225       10.3316960995
  O        42.0343790423       31.5064846754        9.2416080791
  O        20.3176306004        1.0366348416        9.4803759163
  O        43.2760885146       33.1826059457        5.5749169390
  O        42.0052306830       31.5841408695        6.5829857354
  O        40.5791269890       33.7751585519        5.9360922129
  O        22.3673295940        1.3846473295        7.9981431869
  O        36.6727687743       35.0997073214        9.2332306281
  O        16.4457230093        0.0642160255        6.6682760102
  O        17.9365105661        2.0434027527        5.3263887865
  O        18.9189664530        3.5930958532        6.6660295653
  O        29.8594148784       18.8937128292       12.0878645971
  O        30.9976555726       16.1783019996        4.0765267242
  O        31.2199681230       16.3958695294       11.9991022206
  O        32.3721446837       16.4843600590        0.8269569155
  O        29.9568008393       15.5400089391       14.1530853408
  O        28.8425577122       18.0217842798       14.5602674828
  O        39.4568574418       35.2437690397        4.0019864022
  O        19.1406677980        0.0042310868       11.9906136301
  O        41.9694053418       35.1725422902        4.0872284497
  O        21.6911630471       -0.0693725976       11.8959167699
  O        51.3653568583       18.6142098548        4.0054643897
  O        10.7510530374       18.7470837112       11.9047737131
  O        50.0794939269       16.4128144708        4.0918309795
  O         9.5239298690       16.4831889532       11.9911779174
 Zr         9.2968522349       16.0527717799        6.1824518987
 Zr        49.8365440066       16.0067081783        9.7464314426
 Zr        22.0734646294        0.0303002286        6.1890621244
 Zr        42.4611609908       35.1540397672        9.8012767816
 Zr        29.6181227587       19.1043228628        6.3959671937
 Zr        29.5725516228       19.1533880683        9.9456672592
 Zr        11.0379733825       19.0516281728        9.8274440837
 Zr        11.0445131845       19.1544577627        6.2507243536
 Zr        31.3426504644       16.1044882701        9.8730128062
 Zr        31.3700916981       16.0149527321        6.2535510849
 Zr        18.6011749457       -0.0013005940        9.7632241498
 Zr        18.5069424309       -0.0072775706        6.2135585981
 Zr        12.3034081188       16.3238067058        7.9894576852
 Zr        48.6158911613       18.8328209732        8.0101257523
 Zr        20.3154698794        2.4739612030        7.9912843253
 Zr        40.6435408236       32.6872561352        7.9779104244
 Zr        28.3315781447       16.3477595724        8.0874881341
 Zr        32.6486178165       18.8393501776        8.0726389235
  H        29.8700565365       18.2397615670        1.7018344760
  H        32.7265213073       17.3580704805        0.5685740573
