     563
 i =      117, E =     -4694.9740303260
  C        11.8586286987       14.0533641949        5.7415586249
  C        12.4560869455       12.8904187080        5.0232859244
  C        11.7044592569       12.1714668763        4.0815780877
  C        12.2808806319       11.1092458131        3.3892898213
  C        13.6214607838       10.7394297054        3.6170552047
  C        14.3545693451       11.4430494984        4.5905422316
  C        13.7816272021       12.5080144519        5.2820271699
  C        14.2610011609        9.6487509723        2.8436579060
  C        14.2560368506        9.6565431137        1.4219502547
  C        13.7428017954       10.7586376225        0.6680514460
  C        49.1265457779       21.2333218167        5.8798471148
  C        48.5496559532       22.4011901136        5.1527637941
  C        49.2996366717       23.0684080052        4.1716549667
  C        48.7326914605       24.1074860998        3.4383899596
  C        47.4021761958       24.5091875342        3.6670503855
  C        46.6712846862       23.8604409411        4.6806998946
  C        47.2337480538       22.8155828760        5.4101156444
  C        46.7719568303       25.5868709270        2.8697450773
  C        46.7609896273       25.5572606497        1.4479806085
  C        47.2609544816       24.4421907994        0.7044704859
  C        14.8599046856        8.5701816942        0.7086546573
  C        14.8920396216        8.5969209912        3.5202756398
  C        49.1130288001       21.2034655489       10.1453494985
  C        48.5276651308       22.3648926387       10.8723794566
  C        49.2668308131       23.0254031059       11.8654875175
  C        48.6905305771       24.0599609076       12.5969579939
  C        47.3602187241       24.4569726864       12.3585381953
  C        46.6399181344       23.8123026055       11.3347777953
  C        47.2134187107       22.7763773075       10.6029748809
  C        46.7217366506       25.5318852241       13.1496109218
  C        46.7333550787       25.5281616601       14.5713200752
  C        47.2487610428       24.4289370510       15.3277065916
  C        40.6006981159       17.0828103801       15.3027131884
  C        40.5965628053       17.0739852699       12.4914631464
  C        11.8827930082       14.0863918351       10.2855497512
  C        12.4719295509       12.9105156647       10.9897244526
  C        11.7144044653       12.1774497061       11.9159533471
  C        12.2809007163       11.0949356400       12.5843459524
  C        13.6196613630       10.7209887653       12.3524400404
  C        14.3576205750       11.4363962613       11.3914956054
  C        13.7922836075       12.5176166190       10.7188095420
  C        14.2532012331        9.6241863808       13.1228482380
  C        14.2519108404        9.6441120659       14.5446940734
  C        13.7421198134       10.7530732455       15.2917992185
  C        22.5098092711        3.2448269322        5.7479902421
  C        23.2192037156        4.3474019935        5.0376472417
  C        24.2133820634        4.0621547120        4.0896806266
  C        24.8418252741        5.0972906863        3.4018722037
  C        24.4924711139        6.4415442589        3.6403662534
  C        23.5230127835        6.7180305164        4.6221880305
  C        22.8903913719        5.6847628286        5.3091491714
  C        25.1091492917        7.5455935313        2.8681946036
  C        25.1018930533        7.5385422810        1.4459322774
  C        24.4086897165        6.5410959484        0.6893985478
  C        38.2980564444       31.9272853874        5.8509176281
  C        37.5566980332       30.8379199780        5.1484534174
  C        36.5895292283       31.1441901739        4.1783710930
  C        35.9587474528       30.1263160714        3.4674510252
  C        36.2792370312       28.7745175572        3.7021583576
  C        37.2161233198       28.4756839955        4.7097884000
  C        37.8505971613       29.4925483656        5.4204151953
  C        35.6692505223       27.6856544331        2.9023017898
  C        35.7083604979       27.7014830210        1.4801339256
  C        36.4172978533       28.7048499503        0.7468779013
  C        25.7366738118        8.6075840934        0.7345299508
  C        25.7014959098        8.6188484025        3.5466232438
  C        38.3297371419       31.9607876689       10.1597147446
  C        37.6109822062       30.8879157414       10.9078402752
  C        36.6768608962       31.1980464258       11.9084379098
  C        36.0647806910       30.1815733334       12.6400454566
  C        36.3717262953       28.8277463946       12.3958623160
  C        37.2866598756       28.5275628593       11.3677261988
  C        37.9004072831       29.5405746278       10.6370614990
  C        35.7564185137       27.7292025650       13.1776861343
  C        35.7523433780       27.7241112964       14.6005334586
  C        36.4368999662       28.7166553163       15.3700815535
  C        46.1352957209       26.6207666709       15.2814655623
  C        46.0878294072       26.5802840504       12.4735721022
  C        22.4722735019        3.2588725195       10.2558777457
  C        23.1897702711        4.3650913077       10.9653178560
  C        24.2005185106        4.0726134004       11.8958156123
  C        24.8492911657        5.0978109225       12.5815731304
  C        24.5099690978        6.4485080956       12.3625188913
  C        23.5240156829        6.7341296175       11.3985214815
  C        22.8710402084        5.7090866902       10.7121641253
  C        25.1510373803        7.5413727747       13.1418238347
  C        25.1244815255        7.5355302097       14.5654096465
  C        24.4169715341        6.5411799430       15.3125330518
  C        26.5635035882       17.8271447093        5.7877496619
  C        25.2652670901       17.8817578532        5.0576320656
  C        25.0159451670       18.8836359696        4.1070263805
  C        23.8077821103       18.9091452142        3.4149248058
  C        22.8165289795       17.9364155783        3.6534991395
  C        23.0616038316       16.9576650537        4.6345758066
  C        24.2713322802       16.9265698512        5.3243217938
  C        21.5498764360       17.9269540078        2.8837096423
  C        21.5573582531       17.9146550354        1.4618580467
  C        22.7664241824       17.7946573972        0.7063499010
  C        34.4448257516       17.1883617960        5.9552555448
  C        35.7345472996       17.1378555092        5.2025708661
  C        35.9402792377       16.1621809991        4.2142004543
  C        37.1151027672       16.1519444076        3.4657282647
  C        38.1210889364       17.1136050430        3.6863137664
  C        37.9184444762       18.0696442783        4.7003065178
  C        36.7394294766       18.0875537268        5.4432828215
  C        39.3720775404       17.1219362657        2.8899771167
  C        39.3592306609       17.1239388930        1.4674957090
  C        38.1475086875       17.2421404934        0.7172930573
  C        20.3132879263       17.9376523597        0.7504321229
  C        20.3245094040       17.9245327167        3.5630089092
  C        34.3534545991       17.1754773281       10.2720174927
  C        35.6630317913       17.0836679526       10.9757872451
  C        35.8810238591       16.1280682317       11.9804902199
  C        37.0894367869       16.1019028968       12.6726920199
  C        38.1084787644       17.0336744875       12.3885675279
  C        37.8952950692       17.9592978546       11.3489506111
  C        36.6893488896       17.9874109608       10.6544240334
  C        39.3687707290       17.0633272949       13.1665178318
  C        39.3574553457       17.0963662291       14.5888613427
  C        38.1468674835       17.2293908803       15.3404264552
  C        35.1173034230       26.6444279075       15.3004862347
  C        35.1723570311       26.6570237018       12.4904931132
  C        26.5600173990       17.8239278841       10.3249529696
  C        25.2467663200       17.8786434549       11.0240515852
  C        24.9801944147       18.8929906305       11.9561673122
  C        23.7632216000       18.9201419986       12.6301186044
  C        22.7847924017       17.9348086374       12.3927352126
  C        23.0438122033       16.9475722733       11.4248480630
  C        24.2620198436       16.9166544000       10.7504684916
  C        21.5216485108       17.9188753254       13.1645041329
  C        21.5427155466       17.9102105371       14.5856576446
  C        22.7594788234       17.7930029116       15.3298888198
  C        14.0449700530       17.8314623337       10.2846034483
  C        15.3504595934       17.8945289270       11.0030680162
  C        15.6082662327       18.9054716037       11.9416407689
  C        16.8183105560       18.9304868202       12.6311790319
  C        17.8016679552       17.9472205412       12.4029211177
  C        17.5495763182       16.9616855612       11.4304488572
  C        16.3391083468       16.9322561547       10.7422648795
  C        19.0678076583       17.9304565590       13.1730381355
  C        19.0612419342       17.9265963845       14.5946628525
  C        17.8508401036       17.8281920257       15.3505316405
  C        46.7964756375       17.2140034061       10.1550203178
  C        45.4950626559       17.1373002703       10.8873313854
  C        45.2854137779       16.1528382397       11.8661940488
  C        44.0967752679       16.1202672430       12.5925443819
  C        43.0821444086       17.0714841953       12.3652277860
  C        43.2871041391       18.0326243186       11.3560220474
  C        44.4771716784       18.0694070617       10.6306675312
  C        41.8279478726       17.0760919416       13.1595792296
  C        41.8424126983       17.0907926347       14.5830971789
  C        43.0557407375       17.1966597421       15.3337775099
  C        20.3054825146       17.9345988784       15.3062853837
  C        20.2926185224       17.9082340035       12.4938373644
  C        46.7848001628       17.2346038311        5.8828158494
  C        45.4851023161       17.1356241499        5.1563678290
  C        45.2690291527       16.1423027284        4.1887504927
  C        44.0826323523       16.1173502951        3.4586878330
  C        43.0802483038       17.0827950840        3.6776398932
  C        43.2889395052       18.0488641156        4.6802176548
  C        44.4762679902       18.0799762270        5.4056274938
  C        41.8289059828       17.0995104455        2.8857883007
  C        41.8432912886       17.1020224446        1.4637112268
  C        43.0561822347       17.1994640001        0.7111064696
  C        46.1530005495       26.6371548496        0.7262285481
  C        46.1620679324       26.6560323780        3.5358668766
  C        14.0406072258       17.8286247297        5.7066500161
  C        15.3553518914       17.8976897579        5.0079240493
  C        15.6260056205       18.9177236791        4.0839181419
  C        16.8506970670       18.9536852535        3.4222461360
  C        17.8295906820       17.9685272660        3.6600266096
  C        17.5648242431       16.9751196598        4.6198158560
  C        16.3423731966       16.9388493569        5.2853822637
  C        19.0955414489       17.9475658267        2.8920576798
  C        19.0758294802       17.9339853886        1.4710466533
  C        17.8579649406       17.8312998931        0.7267664201
  C        28.8238281292       14.1539245321       10.4198425836
  C        28.2546027120       12.9653333179       11.1140111520
  C        28.9795061026       12.2467106618       12.0765784769
  C        28.4002504499       11.1480766540       12.7102611318
  C        27.0824365662       10.7436035639       12.4100910731
  C        26.3832231374       11.4436344489       11.4098514417
  C        26.9584419895       12.5388963544       10.7739019264
  C        26.4152172055        9.6515864465       13.1588819996
  C        26.3759039161        9.6798293896       14.5800336918
  C        26.8566578389       10.7978795939       15.3330140230
  C        32.1814131216       21.2273423369       10.1505529886
  C        32.7750978988       22.3965894717       10.8634118769
  C        32.0268782402       23.0710392671       11.8414728685
  C        32.5947964623       24.1129050188       12.5683895634
  C        33.9272014299       24.5100888749       12.3411097760
  C        34.6567067546       23.8552058431       11.3303009844
  C        34.0914480791       22.8080978475       10.6040070504
  C        34.5525204204       25.5863953204       13.1451886834
  C        34.5344204513       25.5585894303       14.5675285753
  C        34.0270232352       24.4410164585       15.3026977842
  C        25.7541987369        8.6017182027       15.2892485542
  C        25.7850198786        8.6004123484       12.4761738083
  C        32.0881197303       21.1652680122        5.8402817375
  C        32.6562332641       22.3326621866        5.1029829084
  C        31.9275676336       22.9751569455        4.0900804590
  C        32.4961821664       24.0262503830        3.3726120844
  C        33.8088001677       24.4627773119        3.6440989412
  C        34.5172529874       23.8334541044        4.6859828397
  C        33.9527940255       22.7816493755        5.4021213282
  C        34.4490372819       25.5517776840        2.8684664542
  C        34.4814049470       25.5412492620        1.4459842620
  C        34.0013618813       24.4329504080        0.6792926494
  C        40.6006748116       17.0928829905        0.7487662876
  C        40.6016256526       17.1261134835        3.5595468152
  C        28.7410730493       14.0614179244        5.8140563766
  C        28.1346723733       12.9128446851        5.0790387107
  C        28.8709064623       12.2198573106        4.1057382602
  C        28.2927707457       11.1619056422        3.4086640725
  C        26.9616173868       10.7700919303        3.6571896156
  C        26.2428543366       11.4500581461        4.6585419169
  C        26.8194905515       12.5083335283        5.3583560258
  C        26.3231179870        9.6816555304        2.8780424646
  C        26.3287509803        9.6961824534        1.4558290885
  C        26.8321304042       10.8067920560        0.7086499255
  C        18.1355690003        3.1810554614       10.3170870988
  C        17.4060715290        4.2782270342       11.0155147257
  C        16.3900960898        3.9997114226       11.9427302299
  C        15.7422456814        5.0395670705       12.6062843067
  C        16.0942430396        6.3833323283       12.3669400452
  C        17.0838909555        6.6530199975       11.4034928197
  C        17.7331571093        5.6157959996       10.7383921512
  C        15.4697478501        7.4908997766       13.1300843968
  C        15.4849549666        7.4901336445       14.5518114264
  C        16.1865601251        6.4965288868       15.3049494983
  C        42.9457628713       31.8596592925       10.0728164451
  C        43.6461460419       30.7719246710       10.8167627961
  C        44.5914973275       31.0932720278       11.8029876158
  C        45.1972078171       30.0877331648       12.5506651372
  C        44.8709581416       28.7346547921       12.3356585622
  C        43.9453240895       28.4202950834       11.3222750334
  C        43.3365144468       29.4254301349       10.5742151923
  C        45.4885206915       27.6553462848       13.1388514003
  C        45.4926001423       27.6809054939       14.5605482131
  C        44.8054975164       28.6889403737       15.3071740767
  C        14.8559722390        8.5626031901       15.2642122502
  C        14.8744840969        8.5627011292       12.4515325576
  C        42.9463695215       31.9617314363        5.8089713853
  C        43.6915633279       30.8855244826        5.0954853076
  C        44.6561718183       31.1913924275        4.1231949742
  C        45.2776592982       30.1717816785        3.4054583314
  C        44.9538109188       28.8214813869        3.6430723437
  C        44.0203227996       28.5238485103        4.6538532689
  C        43.3921078279       29.5406413489        5.3660408921
  C        45.5627862713       27.7240402581        2.8578211073
  C        45.5330526230       27.7173253911        1.4365233810
  C        44.8267510411       28.7075668941        0.6835677392
  C        35.0926306366       26.6344540268        0.7463387820
  C        35.0551860394       26.6112262724        3.5570274276
  C        18.1490060022        3.2469666793        5.7068300712
  C        17.4305250364        4.3438250753        4.9974107082
  C        16.4149838096        4.0525272290        4.0741963629
  C        15.7666326208        5.0831122530        3.3987757740
  C        16.1215549342        6.4283506038        3.6210893605
  C        17.1133739163        6.7117682520        4.5778836463
  C        17.7610977120        5.6829001563        5.2577044328
  C        15.4908056321        7.5239606129        2.8486631840
  C        15.4963194001        7.5071710218        1.4275170018
  C        16.1929555031        6.5054193599        0.6807684590
  H        10.6723362519       12.4655666779        3.9044820691
  H        11.6946252290       10.5507339739        2.6627480572
  H        15.3916217568       11.1685381355        4.7722918746
  H        14.3511031150       13.0712048638        6.0174791110
  H        13.3759659632       11.6308402116        1.2013525652
  H        50.3223341569       22.7483458631        3.9869004724
  H        49.3191596213       24.6226861642        2.6807546072
  H        45.6418407807       24.1613322284        4.8639467361
  H        46.6628054185       22.2904636696        6.1723477021
  H        47.6295121082       23.5758108026        1.2461377377
  H        14.8727194236        8.5883094903        4.6085906462
  H        50.2867898043       22.7023689786       12.0605463285
  H        49.2688832353       24.5752436608       13.3606074132
  H        45.6106098152       24.1097663399       11.1455421160
  H        46.6526430013       22.2543767218        9.8312673228
  H        47.6076206629       23.5518493013       14.7968138679
  H        40.5944047466       17.0280460948       11.4039449426
  H        48.6868963948       14.0952780734        7.7999466251
  H        10.6809860057       12.4666472645       12.0934446886
  H        11.6890969482       10.5246353978       13.2971060441
  H        15.3930301027       11.1584475249       11.2055240547
  H        14.3647218519       13.0868642971        9.9902636301
  H        13.3753763327       11.6217407348       14.7531952861
  H        47.9300726918       14.2188073829        9.7112606603
  H        47.7798124010       14.3733943055        6.4951544626
  H        49.0814197198       18.5513661878       10.8666616232
  H        10.4158017534       14.1344033542        7.9990013085
  H        24.4732422559        3.0224431141        3.9035984102
  H        25.6149035452        4.8740689794        2.6697858748
  H        23.2439518034        7.7522384603        4.8129656602
  H        22.1218864194        5.8909122837        6.0502090644
  H        23.8379750139        5.7854301357        1.2214114153
  H        36.3564021080       32.1882250415        3.9827896846
  H        35.2097709191       30.3704102306        2.7172131125
  H        37.4729094542       27.4356492242        4.9004228606
  H        38.5989297810       29.2666589600        6.1765148902
  H        36.9770803731       29.4560986769        1.2963157716
  H        25.7244495345        8.5998512654        4.6347478569
  H        36.4496096438       32.2425180580       12.1097244520
  H        35.3339245011       30.4297805287       13.4065533866
  H        37.5380318732       27.4871948876       11.1721851168
  H        38.6273448346       29.3117918225        9.8614928727
  H        37.0127363746       29.4765871563       14.8496525819
  H        46.1093629135       26.5877735170       11.3855391280
  H        44.6682968336       35.1161190535        7.8140238888
  H        24.4681542733        3.0320347096       12.0652325478
  H        25.6336327759        4.8596016754       13.2969756973
  H        23.2477816083        7.7709114671       11.2171596318
  H        22.0943909021        5.9315514753        9.9838876064
  H        23.8523564324        5.7859234316       14.7736558326
  H        44.9536136958       34.3903148357        9.6952008294
  H        44.9014902888       34.2068773857        6.4905324290
  H        40.6662723257       33.2096918860       10.8533244413
  H        23.1511985366        1.9581740846        8.0036530802
  H        25.7780995955       19.6381782532        3.9267567551
  H        23.6160710119       19.6904489641        2.6826896474
  H        22.3055535368       16.1985846663        4.8244326856
  H        24.4750951161       16.1578855333        6.0659375988
  H        23.7060676012       17.6705436132        1.2370012462
  H        35.1619558378       15.4228055743        4.0397381758
  H        37.2691862503       15.3883107384        2.7063485636
  H        38.6843313135       18.8221583885        4.8767351568
  H        36.5689171031       18.8434077801        6.2064427168
  H        37.2122591168       17.3759806228        1.2535640986
  H        20.3281558127       17.9572214939        4.6510569725
  H        35.0884652582       15.4220109493       12.2176812477
  H        37.2549778171       15.3558327761       13.4467450429
  H        38.6726211750       18.6853330375       11.1198585054
  H        36.5096761836       18.7202410437        9.8714451589
  H        37.2101265371       17.3553182099       14.8053764328
  H        35.1537838020       26.6829551918       11.4025698888
  H        28.5170540431       21.0840662955        7.8955562840
  H        25.7375975632       19.6524698413       12.1355244762
  H        23.5556663153       19.7079072193       13.3509701258
  H        22.2945629756       16.1813904100       11.2367232951
  H        24.4801557646       16.1416955338       10.0196502653
  H        23.6938957362       17.6678084755       14.7905356270
  H        28.9775684173       21.7237335944        9.7678660199
  H        29.1648919042       21.7284539756        6.5442177087
  H        32.0831279795       18.5046921656       11.0512828750
  H        27.3930287865       19.0702611579        8.0729819305
  H        14.8496482467       19.6652627182       12.1154817766
  H        17.0168979885       19.7186320569       13.3542762616
  H        18.3006098392       16.1960512674       11.2470426332
  H        16.1298288072       16.1586697984       10.0073482397
  H        16.9101416475       17.7168293942       14.8193077492
  H        46.0724255224       15.4260862531       12.0539094486
  H        43.9416851671       15.3494359545       13.3443857850
  H        42.5148804809       18.7766087888       11.1711667617
  H        44.6471522236       18.8290159377        9.8709986802
  H        43.9939790674       17.3067204960       14.7975330259
  H        20.2895446620       17.9365796855       11.4056876156
  H        46.0457588240       15.4017707895        4.0117006128
  H        43.9190934939       15.3435162556        2.7117969209
  H        42.5223533170       18.8005870631        4.8565613745
  H        44.6553733148       18.8443340588        6.1578720674
  H        43.9949470406       17.3112654958        1.2460663315
  H        46.1989630380       26.6826229792        4.6233088355
  H        52.7412812977       21.0626609765        8.1945967913
  H        14.8673274171       19.6758047028        3.9026748264
  H        17.0628735945       19.7476894398        2.7095134748
  H        18.3135981039       16.2085106351        4.8081859475
  H        16.1206900456       16.1609628375        6.0119369215
  H        16.9226411727       17.7224387361        1.2675775024
  H        52.3226243717       21.6736298813        6.2945284714
  H        52.0138056828       21.7028028776        9.4954569130
  H        49.0674418821       18.6081501434        5.2039592197
  H        13.2470760418       19.0160969575        7.9760664696
  H        29.9920149793       12.5624435619       12.3186382050
  H        28.9656470329       10.5925004058       13.4552708436
  H        25.3651841722       11.1455264251       11.1679766437
  H        26.4107585406       13.0965870659       10.0188012010
  H        27.2177930599       11.6726339054       14.8006403261
  H        31.0044666968       22.7514057285       12.0285516001
  H        32.0083568174       24.6333561592       13.3223837643
  H        35.6875911078       24.1512086467       11.1468737339
  H        34.6631240298       22.2796573655        9.8445635709
  H        33.6836097394       23.5677150785       14.7555423622
  H        25.8293423428        8.5817775791       11.3885266418
  H        30.9197199162       22.6299576806        3.8699457114
  H        31.9223153382       24.5251614924        2.5947144130
  H        35.5331174176       24.1565270840        4.9038697523
  H        34.5081313562       22.2768953112        6.1889107709
  H        33.6385702674       23.5529654313        1.2026541249
  H        40.6032652296       17.0963081056        4.6475112104
  H        32.5205621068       14.1385454090        8.2230898008
  H        29.8967534689       12.5240257454        3.9113963817
  H        28.8719466673       10.6224483354        2.6624496979
  H        25.2127116829       11.1619477210        4.8578609273
  H        26.2593093340       13.0492976168        6.1172968176
  H        27.1741050781       11.6875414617        1.2444299764
  H        33.3080391619       14.2464713125        6.4661536843
  H        33.4009371794       14.3257038676        9.6297736038
  H        32.0962814780       18.4596979464        5.1547302652
  H        30.2009143274       14.1372479936        8.0946162931
  H        16.1179830191        2.9631802045       12.1288881271
  H        14.9526420215        4.8200635005       13.3217355412
  H        17.3665228390        7.6859079927       11.2107384809
  H        18.5155390883        5.8186411091       10.0109647666
  H        16.7531335673        5.7392213010       14.7714201280
  H        44.8276404488       32.1403702931       11.9772749287
  H        45.9369615233       30.3415296633       13.3067060815
  H        43.6828187080       27.3782021998       11.1520130510
  H        42.6001105730       29.1900983513        9.8093427295
  H        44.2302007098       29.4367487438       14.7688653810
  H        14.8508907681        8.5460470307       11.3633080290
  H        44.8997776497       32.2340651683        3.9317689212
  H        46.0245861275       30.4129996810        2.6522375809
  H        43.7633335440       27.4841259866        4.8454158408
  H        42.6456151585       29.3178925143        6.1245077233
  H        44.2683003972       29.4704929366        1.2181564615
  H        35.0049590069       26.6235753527        4.6442390598
  H        36.6054310421       35.1341133625        8.1805769991
  H        16.1436531577        3.0129653444        3.9047971362
  H        14.9740459402        4.8562342141        2.6889934125
  H        17.3972397594        7.7472071567        4.7543741025
  H        18.5443053277        5.8934486397        5.9820847304
  H        16.7645409653        5.7552627684        1.2191646873
  H        36.2796762445       34.4818465172        6.2732597485
  H        36.3814971177       34.2088621385        9.4993733064
  H        40.5791536121       33.2024816190        5.1539093398
  H        17.4720006172        1.9475818396        7.9743042643
  H        28.7062850068       18.7721936821       12.3016354943
  H        28.7118228567       18.6861754265        3.9061695296
  H        31.5565091293       15.6439838160        3.5724998564
  H        31.2810006342       16.9050576825       13.1282963419
  H        32.4014384991       16.8915810776        1.6113879895
  H        18.8533695795        0.8691011120       12.3351449319
  H        40.5282209678       35.2289644061        3.9520116354
  H        42.3241627123       34.4189676931        3.5906297699
  H        22.0876570655        0.6921785249       12.3517888939
  H        11.5969181365       18.7123559272       12.3823524119
  H        52.2651888226       18.4313265322        3.6780328101
  H        49.2552355204       16.4764364103        3.5841825728
  H        10.1502694333       15.7982913552       12.2924638937
  H        50.8502570035       17.6927193737        3.9540090078
  H        10.0460238412       17.3949041432       12.0518749087
  H        20.2145197314        0.0022984442       12.0420809132
  H        39.1837132208       36.1243047107        3.6862424254
 Ni        30.4776663500       17.5545468793        2.8309276167
 Ni        30.6059595436       16.9391273675        0.0793710118
 Ni        29.5897988618       18.8948262965        0.5840478855
 Ni        30.3946584443       17.9407313709       13.7395446581
  O        10.6498262954       14.3651706769        5.4858091345
  O        12.6130170338       14.6574192765        6.5838680357
  O        49.1473966219       16.8458938480        7.9898805617
  O        50.3500252286       20.9362570714        5.6482522004
  O        48.3484148794       20.5932152377        6.6660610544
  O        11.0508315475       17.0540507887        6.5006430445
  O        50.3207694575       20.8816999684       10.4068854670
  O        48.3466225682       20.5866252055        9.3271259770
  O        49.5433885874       18.2483963338       10.0682935842
  O        12.3585136412       18.6246450074        7.9996591997
  O        48.6930986349       14.1487005390        6.7512641483
  O         8.2097025706       14.2107102822        9.3227043555
  O        10.7351481973       14.5067598355       10.6643323821
  O        12.5716537268       14.5827165859        9.3285681386
  O        22.8444542608        2.0429581883        5.4868670753
  O        21.6067546336        3.5931007964        6.5885052062
  O        42.0580336481       34.1375808507        7.9792326192
  O        37.9813139806       33.1361498740        5.5719958504
  O        39.2169447726       31.5747704006        6.6653826842
  O        20.3087121956        1.0405786554        6.5025546388
  O        38.0242313539       33.1848456378       10.4157234160
  O        39.2182923429       31.5828983154        9.3275330847
  O        40.6523314464       33.7696530190       10.0601939039
  O        18.2564543649        1.3760731833        7.9968720183
  O        44.6221223609       35.1006178401        6.7588370236
  O        24.2053763089        0.0000267607        9.3207760512
  O        22.7542452309        2.0588545627       10.5850726889
  O        21.6274268051        3.5993531229        9.3484432358
  O        27.4595800764       18.6967010356        5.4949148735
  O        26.6927958964       16.9186121146        6.6732239719
  O        30.6487336972       19.3430167580        8.0776851611
  O        33.5946283341       16.2644386008        5.7442513117
  O        34.2710708569       18.1808217475        6.7480751268
  O        29.5424894342       17.0070594839        6.5826652463
  O        33.4375697468       16.3223381279       10.5855369292
  O        34.2226714821       18.1033559898        9.4113234301
  O        31.6063553598       18.2500413734       10.2432736477
  O        30.2939311473       15.1036789755        8.0838908188
  O        28.5547272061       21.0280680257        6.8373370561
  O        28.5161423068       20.9501639950        9.4030162866
  O        27.4528347867       18.6764896459       10.6608835937
  O        26.6902352331       16.9293526120        9.4160859974
  O        13.1464788809       18.6937160827       10.5863075541
  O        13.9177638328       16.9159903348        9.4039783030
  O        50.5954690489       19.3502027535        8.0206130310
  O        47.6794090241       16.3279497386       10.4182422477
  O        46.9486097924       18.1755775017        9.3265889607
  O        11.0687100233       17.0159120530        9.4895636459
  O        47.6742876232       16.3363373215        5.6519001088
  O        46.9249023599       18.2358942302        6.6631470820
  O        49.5681523718       18.3177453528        5.9823177740
  O        10.3185418438       15.1002690083        7.9971396173
  O        52.6707156270       21.0279947367        9.2417830997
  O        12.1467766015       20.8913423100        6.6733309873
  O        13.1053927005       18.6141331427        5.3261627760
  O        13.9551007592       16.9863982440        6.6655733599
  O        29.9954208056       14.5817233363       10.7475706838
  O        28.0918413788       14.6554074947        9.4998168612
  O        32.0697080781       16.8482102256        8.0782983702
  O        30.9681399276       20.9365664525       10.4145101163
  O        32.9478323382       20.5869243204        9.3392806774
  O        29.5575261172       17.0708623592        9.5675169642
  O        30.8815025589       20.8148215713        5.5842457631
  O        32.8689579214       20.5832027482        6.6687322307
  O        31.6733959245       18.2424770062        6.0026817773
  O        28.2776676813       18.6692029484        8.0758701456
  O        32.4872262137       14.2092650562        9.3170277178
  O        32.4059495664       14.2109466124        6.8275998602
  O        29.9156781602       14.4345255339        5.4859916930
  O        28.0356824515       14.5852070839        6.7484971775
  O        17.8893520637        1.9666740527       10.6627177787
  O        18.9565254680        3.5272098264        9.4079584908
  O        39.1685135806       34.1385903137        7.9971641987
  O        43.2801367040       33.0589932797       10.3317094589
  O        42.0343075576       31.5065105024        9.2416155766
  O        20.3179376940        1.0370231236        9.4799031386
  O        43.2760519458       33.1826109616        5.5749088527
  O        42.0052146542       31.5841272057        6.5830350045
  O        40.5789122651       33.7751097636        5.9360694054
  O        22.3676648836        1.3854236109        7.9983050461
  O        36.6728868477       35.0997348219        9.2332883490
  O        16.4458734966        0.0642286751        6.6682524711
  O        17.9365351020        2.0433092721        5.3265670038
  O        18.9194662370        3.5930642731        6.6661333452
  O        29.6564369701       18.6833032937        4.1510268097
  O        29.6580281014       18.8344284303       12.0875563529
  O        31.3853405620       16.4032334409        4.1613024645
  O        31.5536521946       16.4105066959        1.5755002602
  O        29.3163316900       17.8075067012       15.1624434177
  O        39.4568621075       35.2437583683        4.0020421244
  O        19.1412642024        0.0045695648       11.9905267341
  O        41.9695199415       35.1727379419        4.0872282812
  O        21.6913523076       -0.0692564917       11.8960081408
  O        51.3650448466       18.6144005519        4.0053372246
  O        10.7509899758       18.7471131945       11.9050671677
  O        50.0794823910       16.4127360160        4.0917920143
  O         9.5243220334       16.4831901319       11.9911554523
 Zr         9.2969097151       16.0528551937        6.1822009841
 Zr        49.8361812125       16.0071512584        9.7468153362
 Zr        22.0732099556        0.0305664209        6.1891243209
 Zr        42.4611511848       35.1545619652        9.8015349950
 Zr        29.5870697201       19.0463285656        6.2847593165
 Zr        29.5611969056       19.1674911049        9.9112688686
 Zr        11.0376914579       19.0523911836        9.8278819562
 Zr        11.0435797839       19.1550948828        6.2511890923
 Zr        31.3304735460       16.0924052591        9.7869507443
 Zr        31.3615848053       15.9901211262        6.2498095422
 Zr        18.6014096810       -0.0011541793        9.7632129233
 Zr        18.5071007243       -0.0070801271        6.2137585591
 Zr        12.3014690532       16.3232576745        7.9905220549
 Zr        48.6158877297       18.8327687178        8.0106749891
 Zr        20.3173761083        2.4754533711        7.9919804432
 Zr        40.6433637833       32.6872709941        7.9780098772
 Zr        28.3166361017       16.3273097265        8.0758124428
 Zr        32.6114115452       18.8434553833        8.0418768851
  H        29.2759215504       18.1453599753        1.9065991890
