     573
 i =      190, E =     -4762.8091041607
  C        11.8588711534       14.0535075818        5.7415193348
  C        12.4563897107       12.8906474611        5.0231680803
  C        11.7045122074       12.1713230477        4.0819519630
  C        12.2809108217       11.1091156292        3.3896340897
  C        13.6216713119       10.7397467595        3.6169661263
  C        14.3550897225       11.4438184441        4.5898688030
  C        13.7821910260       12.5088178730        5.2813374911
  C        14.2611349529        9.6489983181        2.8436120728
  C        14.2563350406        9.6568327906        1.4219165269
  C        13.7431129703       10.7589398293        0.6680296108
  C        49.1270403145       21.2331318365        5.8796204441
  C        48.5502948174       22.4011942234        5.1525452489
  C        49.3002941496       23.0684722876        4.1715183306
  C        48.7333646531       24.1076454685        3.4383292768
  C        47.4028787843       24.5093674566        3.6670702145
  C        46.6719800600       23.8605722121        4.6806715166
  C        47.2344362666       22.8156467282        5.4099927327
  C        46.7725340590       25.5870310253        2.8698177421
  C        46.7612828594       25.5573335411        1.4480591805
  C        47.2612168212       24.4422433696        0.7045610542
  C        14.8602150235        8.5704613880        0.7086578229
  C        14.8919797727        8.5971083828        3.5202728065
  C        49.1133271881       21.2034113352       10.1453541980
  C        48.5279081378       22.3648279775       10.8725908405
  C        49.2670622860       23.0254319861       11.8656135579
  C        48.6907289262       24.0600152609       12.5970675236
  C        47.3603844138       24.4569054820       12.3586930783
  C        46.6400667696       23.8121372602       11.3350163967
  C        47.2136302842       22.7762167490       10.6032524796
  C        46.7218513442       25.5318420732       13.1497132669
  C        46.7333992110       25.5281188625       14.5714223212
  C        47.2488950784       24.4289295565       15.3278010625
  C        40.6339052071       17.1585811617       15.3216991095
  C        40.6558273557       17.1799563370       12.5126767730
  C        11.8831455460       14.0865783415       10.2855337799
  C        12.4725395643       12.9109093300       10.9898803249
  C        11.7148785451       12.1773444653       11.9155908374
  C        12.2814982740       11.0948850245       12.5839737622
  C        13.6204888870       10.7215367481       12.3525176246
  C        14.3586783566       11.4375544684       11.3922269508
  C        13.7932204830       12.5187317267       10.7195598915
  C        14.2540165475        9.6246839436       13.1228702483
  C        14.2525628419        9.6445303800       14.5447068809
  C        13.7426245308       10.7534494815       15.2917761783
  C        22.5131213564        3.2443482117        5.7533953830
  C        23.2308820261        4.3480664597        5.0548165394
  C        24.2281124197        4.0648599175        4.1097018825
  C        24.8589382104        5.1021581776        3.4278538130
  C        24.5085142968        6.4451306977        3.6708349435
  C        23.5395485400        6.7198599473        4.6531218784
  C        22.9039927485        5.6843149632        5.3334587725
  C        25.1177986642        7.5494108573        2.8946072028
  C        25.0888844637        7.5422721690        1.4731227624
  C        24.3827371987        6.5450002451        0.7280908187
  C        38.2988056028       31.9275106101        5.8512437020
  C        37.5588888368       30.8381255191        5.1483048241
  C        36.5939498629       31.1444913480        4.1762545256
  C        35.9649028542       30.1263371021        3.4646040733
  C        36.2851227539       28.7750781878        3.7017600283
  C        37.2197780282       28.4760813865        4.7111624127
  C        37.8528460088       29.4932887406        5.4221202211
  C        35.6750751892       27.6866353983        2.9025825979
  C        35.7151464508       27.7014372580        1.4807229485
  C        36.4297293354       28.7009899157        0.7476984226
  C        25.7133932771        8.6108285580        0.7523686698
  C        25.7182280784        8.6228812181        3.5645229894
  C        38.3304050917       31.9610903383       10.1598516663
  C        37.6129902298       30.8879949784       10.9088376018
  C        36.6815207499       31.1980611496       11.9117752237
  C        36.0709147923       30.1813399762       12.6441463176
  C        36.3766346162       28.8277305268       12.3976872766
  C        37.2889304088       28.5275156041       11.3673567411
  C        37.9015090590       29.5408633522       10.6362750802
  C        35.7608277536       27.7296587495       13.1793791428
  C        35.7587161861       27.7236789195       14.6020179493
  C        36.4492957658       28.7124543857       15.3709800757
  C        46.1353457340       26.6207307908       15.2815682998
  C        46.0879617498       26.5802492354       12.4736703725
  C        22.4609066281        3.2557808037       10.2578503760
  C        23.1549877660        4.3637817926       10.9812220217
  C        24.1572845689        4.0766154604       11.9215472894
  C        24.7857678477        5.1059199949       12.6181215630
  C        24.4321773955        6.4521365856       12.3970843969
  C        23.4528580586        6.7325456039       11.4253414259
  C        22.8197337820        5.7034820211       10.7291562164
  C        25.0648174582        7.5492130722       13.1710336832
  C        25.0618983292        7.5417196712       14.5938762292
  C        24.3681320560        6.5457268067       15.3512658324
  C        26.6252150693       17.8602367972        5.7802582894
  C        25.3201066616       17.9078355970        5.0555104592
  C        25.0731005324       18.8873902248        4.0806546367
  C        23.8588631196       18.9094945487        3.3971098094
  C        22.8566067862       17.9539443855        3.6624844952
  C        23.1017399641       16.9963691684        4.6653520192
  C        24.3164617848       16.9695797211        5.3484489491
  C        21.5831704865       17.9372279923        2.8984164761
  C        21.5820711127       17.9101189918        1.4754442773
  C        22.7864997080       17.7838675539        0.7133128266
  C        34.4372103388       17.1949889425        5.9186038121
  C        35.7277324976       17.1515801046        5.1718402955
  C        35.9224454728       16.2038200416        4.1550676717
  C        37.1033871551       16.1967793183        3.4181362969
  C        38.1206870251       17.1358371940        3.6783446598
  C        37.9271997095       18.0639950798        4.7192835056
  C        36.7437714675       18.0770770287        5.4533740053
  C        39.3757483627       17.1496517188        2.8941586172
  C        39.3737370125       17.1755460598        1.4727016619
  C        38.1688887201       17.3085012272        0.7130835208
  C        20.3343689384       17.9266808025        0.7683058236
  C        20.3582176713       17.9415883302        3.5814485743
  C        34.4768904275       17.2456660845       10.1795366122
  C        35.7799764069       17.1742275232       10.9011691413
  C        35.9890209499       16.2030489223       11.8917361816
  C        37.1743814818       16.1907009871       12.6212001868
  C        38.1784614122       17.1482000483       12.3787390350
  C        37.9757073114       18.0932207518       11.3557254657
  C        36.7880545154       18.1115007284       10.6296919377
  C        39.4239983712       17.1717346482       13.1755344913
  C        39.3983785155       17.1866120988       14.5963648769
  C        38.1803843181       17.3112739583       15.3363463177
  C        35.1181842521       26.6473678588       15.3019622369
  C        35.1725798923       26.6598970236       12.4922245478
  C        26.5681653976       17.8275045435       10.3238299744
  C        25.2526497493       17.8760144300       11.0257326599
  C        24.9843904620       18.8834415993       11.9648385111
  C        23.7678626710       18.9052825721       12.6408090459
  C        22.7888853978       17.9209719734       12.3993912694
  C        23.0495323900       16.9402070526       11.4251064659
  C        24.2676167039       16.9150054931       10.7489426036
  C        21.5267778746       17.8996080910       13.1749334176
  C        21.5529918873       17.8908962020       14.5965788839
  C        22.7723888284       17.7758437856       15.3367488747
  C        14.0465583646       17.8282695610       10.2895686642
  C        15.3499099627       17.8836083933       11.0160789897
  C        15.6059968097       18.8844224184       11.9664464469
  C        16.8145126411       18.9034308439       12.6601117412
  C        17.8013922244       17.9244996278       12.4257570512
  C        17.5498510594       16.9478782739       11.4434960414
  C        16.3408513284       16.9241752372       10.7513937004
  C        19.0709104091       17.9066834205       13.1937599698
  C        19.0715603240       17.9041150504       14.6162702016
  C        17.8655446918       17.8049475401       15.3789249008
  C        46.8071510488       17.2204992897       10.1597308070
  C        45.5194114966       17.1651717497       10.9086807486
  C        45.3129964897       16.1930228080       11.8993410554
  C        44.1329737338       16.1831314470       12.6381042344
  C        43.1310474830       17.1455295358       12.4067765708
  C        43.3350484856       18.0976790441       11.3901209034
  C        44.5156766050       18.1116183094       10.6527723021
  C        41.8781388022       17.1641280564       13.1940583201
  C        41.8818837388       17.1667744547       14.6156327227
  C        43.0899449136       17.2576495543       15.3761520341
  C        20.3192007475       17.9159281039       15.3231465366
  C        20.2941243496       17.8870659923       12.5097966436
  C        46.7856020093       17.2311326148        5.8901366679
  C        45.4809488258       17.1269828072        5.1769077024
  C        45.2605415564       16.1331568107        4.2115063788
  C        44.0717905276       16.1116150819        3.4861995109
  C        43.0746518582       17.0806578284        3.7100494318
  C        43.2845636100       18.0427387416        4.7153752841
  C        44.4745182161       18.0709804059        5.4352581508
  C        41.8297133674       17.1120478285        2.9116973046
  C        41.8572959527       17.1386678662        1.4911246615
  C        43.0782682546       17.2416802719        0.7527870571
  C        46.1531755030       26.6371789112        0.7263328611
  C        46.1627009521       26.6562053455        3.5359661333
  C        14.0470076153       17.8321965413        5.7086536292
  C        15.3689739266       17.9072147829        5.0194365451
  C        15.6428109490       18.9209267283        4.0888886685
  C        16.8725611985       18.9582079262        3.4351166856
  C        17.8573125726       17.9810845042        3.6854436265
  C        17.5904622451       16.9968746975        4.6547017973
  C        16.3627063884       16.9589508012        5.3119987711
  C        19.1249132383       17.9552487621        2.9159295563
  C        19.0998351638       17.9270626386        1.4943807810
  C        17.8794471596       17.8150465661        0.7551074879
  C        28.8091837466       14.0890883807       10.3905074432
  C        28.1978776268       12.9140730219       11.0752773146
  C        28.9240967768       12.1684812981       12.0158214014
  C        28.3256112016       11.0935747672       12.6679511716
  C        26.9869305550       10.7400769448       12.4036096324
  C        26.2827756179       11.4648949364       11.4253085291
  C        26.8788866451       12.5401961172       10.7715080280
  C        26.3193179909        9.6604477553       13.1664095632
  C        26.3133680542        9.6845293157       14.5876676079
  C        26.8233447130       10.7947391097       15.3329026050
  C        32.1766986927       21.2375392448       10.1455937767
  C        32.7687371689       22.4059104232       10.8640935598
  C        32.0174831321       23.0864347654       11.8350764451
  C        32.5855472512       24.1277936796       12.5630783592
  C        33.9212457791       24.5171470070       12.3430855028
  C        34.6549363069       23.8552366843       11.3400644377
  C        34.0891419254       22.8090742659       10.6130924457
  C        34.5479745780       25.5923429496       13.1471078776
  C        34.5278003739       25.5657716240       14.5691638074
  C        34.0069417768       24.4545286986       15.3045478395
  C        25.7037009081        8.6071826775       15.3074451974
  C        25.6785619320        8.6117231782       12.4939854773
  C        32.0790752315       21.1980510108        5.8727576510
  C        32.6468363952       22.3584318210        5.1254263617
  C        31.9118725205       23.0114541090        4.1236665508
  C        32.4845831681       24.0529786877        3.3953739427
  C        33.8061350074       24.4719447510        3.6483969960
  C        34.5225326989       23.8318060811        4.6783606456
  C        33.9553686635       22.7871061542        5.4022878161
  C        34.4473037011       25.5581480494        2.8698515624
  C        34.4748848368       25.5489865031        1.4476421832
  C        33.9804820564       24.4470853180        0.6810723697
  C        40.6210916440       17.1484883826        0.7659304317
  C        40.5982892688       17.1345095998        3.5752769210
  C        28.7500506648       14.0662729953        5.8182967328
  C        28.1434097465       12.9186452679        5.0802848886
  C        28.8818862309       12.2226545553        4.1109232562
  C        28.3042434103       11.1646286596        3.4130210520
  C        26.9720413345       10.7759042478        3.6592224956
  C        26.2505926436       11.4596189723        4.6558359540
  C        26.8264686952       12.5182425454        5.3554386712
  C        26.3318844419        9.6842157580        2.8865101983
  C        26.3214785011        9.6966298229        1.4645353772
  C        26.8252122398       10.8017662760        0.7089896540
  C        18.1354075808        3.1810484637       10.3171424886
  C        17.4061432084        4.2782249468       11.0157131975
  C        16.3903588817        3.9999042765       11.9431969356
  C        15.7426794511        5.0399060235       12.6066787266
  C        16.0946880891        6.3836311333       12.3670746526
  C        17.0841308150        6.6531159048       11.4033516213
  C        17.7331827685        5.6157584448       10.7382915372
  C        15.4703596941        7.4913121576       13.1301387436
  C        15.4854675624        7.4904872361       14.5518535465
  C        16.1869691573        6.4968395149       15.3050298463
  C        42.9458255324       31.8595861519       10.0728457529
  C        43.6462483365       30.7718875729       10.8167543645
  C        44.5914368356       31.0932403523       11.8031454789
  C        45.1971559145       30.0877118502       12.5508359503
  C        44.8710554710       28.7346063783       12.3357358614
  C        43.9456574786       28.4202402220       11.3221255398
  C        43.3368349660       29.4253604357       10.5740608873
  C        45.4885955490       27.6552961319       13.1389429078
  C        45.4926416326       27.6808640863       14.5606440034
  C        44.8055522007       28.6888917758       15.3073002004
  C        14.8564907983        8.5629626553       15.2642293464
  C        14.8752764432        8.5632045229       12.4515524361
  C        42.9464982645       31.9616960391        5.8090029898
  C        43.6918610209       30.8855554748        5.0956515619
  C        44.6561884557       31.1914809537        4.1230893641
  C        45.2777391598       30.1718995764        3.4053687179
  C        44.9542652400       28.8215498335        3.6432473656
  C        44.0211660599       28.5238850957        4.6543920891
  C        43.3928713784       29.5406331938        5.3665684348
  C        45.5632003840       27.7241238569        2.8579559023
  C        45.5332671055       27.7173547191        1.4366567784
  C        44.8268913175       28.7075481748        0.6836979615
  C        35.0935661200       26.6376494769        0.7475144491
  C        35.0589092479       26.6142217006        3.5581206270
  C        18.1486105102        3.2470625520        5.7065666123
  C        17.4300489744        4.3438178641        4.9973338410
  C        16.4147262483        4.0525567816        4.0738607138
  C        15.7664306223        5.0831950895        3.3984989962
  C        16.1212057139        6.4284295922        3.6211322340
  C        17.1127116270        6.7118020930        4.5782671573
  C        17.7603750834        5.6828874366        5.2580313686
  C        15.4906772483        7.5240992681        2.8486829723
  C        15.4964328051        7.5073628420        1.4275495772
  C        16.1931689254        6.5056466053        0.6808445108
  H        10.6722256135       12.4651002452        3.9052888349
  H        11.6945231910       10.5502971094        2.6634356419
  H        15.3923403717       11.1697306618        4.7711095398
  H        14.3519036110       13.0725061570        6.0162247229
  H        13.3761636458       11.6310759946        1.2013649407
  H        50.3229825515       22.7483862428        3.9867201335
  H        49.3198752370       24.6228980754        2.6807593540
  H        45.6425641287       24.1615132036        4.8639928480
  H        46.6635417030       22.2904446792        6.1721990385
  H        47.6299603036       23.5759593355        1.2462562584
  H        14.8725235551        8.5885202878        4.6085837511
  H        50.2870888435       22.7025318781       12.0605702127
  H        49.2691428393       24.5754314857       13.3605867282
  H        45.6107676816       24.1096095287       11.1457524959
  H        46.6529657024       22.2541888102        9.8314827906
  H        47.6078201020       23.5518789398       14.7968872489
  H        40.6638690057       17.1423640000       11.4250645999
  H        48.6871391567       14.0950317785        7.8000412454
  H        10.6812615745       12.4660902205       12.0926652813
  H        11.6896155773       10.5241594202       13.2963309234
  H        15.3943128020       11.1601333714       11.2067254464
  H        14.3657812187       13.0885102805        9.9915188639
  H        13.3758883295       11.6220985456       14.7531309967
  H        47.9303307270       14.2182966329        9.7110238044
  H        47.7801184433       14.3738046739        6.4952713303
  H        49.0849247128       18.5528805114       10.8676496926
  H        10.4163471654       14.1342669369        7.9986869583
  H        24.4864016185        3.0254715911        3.9197062126
  H        25.6322013261        4.8821004662        2.6950032576
  H        23.2615820441        7.7537332340        4.8471911302
  H        22.1337097059        5.8874450839        6.0734460301
  H        23.8209267536        5.7892888170        1.2692653997
  H        36.3616167623       32.1885350206        3.9798712891
  H        35.2175840840       30.3694143703        2.7124013097
  H        37.4757459258       27.4360561600        4.9028759591
  H        38.5998768215       29.2684767726        6.1797984308
  H        36.9934067219       29.4491250909        1.2974209047
  H        25.7533941088        8.6063698693        4.6523456764
  H        36.4553494341       32.2425359841       12.1142386348
  H        35.3420926191       30.4290335706       13.4127528963
  H        37.5390145764       27.4871306114       11.1702566365
  H        38.6266909021       29.3126298891        9.8589119802
  H        37.0289197160       29.4691097781       14.8499057159
  H        46.1096309970       26.5877721291       11.3856406086
  H        44.6684196366       35.1162510601        7.8139379280
  H        24.4346954343        3.0381712913       12.0878429469
  H        25.5668313323        4.8762640570       13.3397562505
  H        23.1683207397        7.7673177599       11.2456420667
  H        22.0479470682        5.9173096021        9.9933433804
  H        23.7946004461        5.7910842475       14.8208960847
  H        44.9542268226       34.3907320046        9.6953659470
  H        44.9022802188       34.2069950250        6.4906157124
  H        40.6666041257       33.2094810965       10.8533429853
  H        23.1504219423        1.9579767907        8.0053981258
  H        25.8450169248       19.6239215035        3.8698362952
  H        23.6739285604       19.6757431084        2.6473872182
  H        22.3409278390       16.2485567244        4.8796215948
  H        24.5151008378       16.2160359578        6.1069584012
  H        23.7294276937       17.6646944244        1.2391849234
  H        35.1312632600       15.4861640901        3.9509101180
  H        37.2544802836       15.4532211288        2.6386177683
  H        38.7046811888       18.7971130124        4.9241404513
  H        36.5777503479       18.8078445920        6.2415520129
  H        37.2300114968       17.4359536389        1.2440721969
  H        20.3659097019       17.9864612520        4.6691374331
  H        35.2032687391       15.4766836091       12.0862377282
  H        37.3366498707       15.4347728698       13.3864405654
  H        38.7455590659       18.8378591452       11.1641308487
  H        36.6086284159       18.8590693353        9.8606010556
  H        37.2503760571       17.4396730342       14.7901263504
  H        35.1540860997       26.6855506339       11.4043086419
  H        28.5064515380       21.0765138669        7.9670069858
  H        25.7409124134       19.6425822608       12.1490178355
  H        23.5617254517       19.6888959299       13.3666414424
  H        22.3014568844       16.1739853142       11.2322244733
  H        24.4852867560       16.1446195190       10.0130986982
  H        23.7041340966       17.6505831036       14.7930672711
  H        29.0109845234       21.7144988439        9.7611021706
  H        29.1524835464       21.7445858223        6.6214517605
  H        32.1378567691       18.5780366060       10.9597103140
  H        27.3935010778       19.0615166308        8.0793378875
  H        14.8476461734       19.6432370151       12.1459648036
  H        17.0094926073       19.6859928143       13.3902525040
  H        18.3013067590       16.1842536497       11.2533635147
  H        16.1354519120       16.1568621351       10.0087696709
  H        16.9224858442       17.6879659980       14.8529564623
  H        46.0940643723       15.4589880946       12.0830252875
  H        43.9719539397       15.4215804740       13.3979449424
  H        42.5688819488       18.8485580045       11.2086325251
  H        44.6911179698       18.8606386856        9.8841992347
  H        44.0325826527       17.3707165102       14.8482816196
  H        20.2866246116       17.9168494153       11.4216729922
  H        46.0366632950       15.3930291886        4.0303599974
  H        43.9035142659       15.3413811198        2.7366507406
  H        42.5190346892       18.7947513398        4.8947760340
  H        44.6592250773       18.8334568163        6.1879238888
  H        44.0120253081       17.3413176683        1.2986004868
  H        46.1998492178       26.6828780922        4.6233984566
  H        52.7413997079       21.0627174904        8.1947206468
  H        14.8819525212       19.6735935360        3.8942452220
  H        17.0830439816       19.7473490419        2.7164519223
  H        18.3415781660       16.2359657042        4.8566337286
  H        16.1423731965       16.1855829553        6.0438210067
  H        16.9467445044       17.7059432637        1.3003017859
  H        52.3232008457       21.6734731435        6.2939469739
  H        52.0137337308       21.7024276394        9.4956825948
  H        49.0681747287       18.6076643089        5.2037657431
  H        13.2480625765       19.0158196012        7.9774334891
  H        29.9552745936       12.4455841458       12.2227778885
  H        28.8901893971       10.5152435097       13.3961046999
  H        25.2484964297       11.2015547596       11.2136187211
  H        26.3323300241       13.1213423907       10.0328625826
  H        27.1877103832       11.6630141781       14.7922707080
  H        30.9918834407       22.7739024220       12.0161978772
  H        31.9961736033       24.6535599097       13.3111435040
  H        35.6886612538       24.1454596145       11.1633890679
  H        34.6623245656       22.2736674987        9.8595933088
  H        33.6493789446       23.5880082400       14.7558680054
  H        25.7041378946        8.5940327618       11.4058414503
  H        30.8939687883       22.6877511047        3.9187255475
  H        31.9054780233       24.5587164347        2.6257534950
  H        35.5454413618       24.1421986847        4.8812903067
  H        34.5157347183       22.2731381159        6.1796003654
  H        33.6022295648       23.5744291066        1.2056737143
  H        40.5898411076       17.0856411743        4.6624762578
  H        32.5101488868       14.1485990146        8.2534632812
  H        29.9100093344       12.5230250295        3.9223733850
  H        28.8850707463       10.6215119400        2.6706526669
  H        25.2195959040       11.1727238731        4.8524464534
  H        26.2655467585       13.0617371332        6.1120408198
  H        27.1897989057       11.6756639806        1.2409512479
  H        33.3079797978       14.2224275141        6.4621554085
  H        33.4094114186       14.4009924580        9.6031370782
  H        32.1232333524       18.5010224237        5.1707700820
  H        30.2223579946       14.1918953684        8.0722932437
  H        16.1181887541        2.9634264008       12.1295589721
  H        14.9531733595        4.8205726801       13.3222882467
  H        17.3667009503        7.6859702958       11.2103195863
  H        18.5152838439        5.8184591090       10.0105257023
  H        16.7536186537        5.7395545737       14.7715523766
  H        44.8275319854       32.1403411982       11.9774946177
  H        45.9368224890       30.3415396713       13.3069541715
  H        43.6833994326       27.3781164931       11.1516733495
  H        42.6006555977       29.1900060191        9.8089795752
  H        44.2302947655       29.4367490981       14.7690147293
  H        14.8517239944        8.5466091082       11.3633256093
  H        44.8995548127       32.2341727550        3.9314549491
  H        46.0244732064       30.4131800232        2.6519743270
  H        43.7646146196       27.4841189437        4.8462942483
  H        42.6467119513       29.3178397908        6.1253490018
  H        44.2685070847       29.4705255642        1.2182850658
  H        35.0106359809       26.6261694514        4.6454077736
  H        36.6052865075       35.1340372827        8.1807087176
  H        16.1435389695        3.0130016804        3.9042017614
  H        14.9740215629        4.8563949261        2.6884965619
  H        17.3963841440        7.7472485647        4.7550226545
  H        18.5434071310        5.8933964942        5.9826075122
  H        16.7646656866        5.7554462238        1.2192667102
  H        36.2784980087       34.4826254637        6.2729089032
  H        36.3808054003       34.2091348134        9.4995426031
  H        40.5796231359       33.2022203848        5.1536646917
  H        17.4710961606        1.9473743301        7.9740807071
  H        28.9847887138       19.2612635722       12.5198881618
  H        30.0956576379       19.7308996503        3.6625693270
  H        31.4946570102       15.6004386953        3.5182016768
  H        31.2098927863       15.4968093716       12.5155245472
  H        29.4597965508       15.4960732854       14.6666895928
  H        32.0737030506       19.6731291553        1.5402809868
  H        32.9743522906       17.3806026894        1.3380468030
  H        28.6385681738       17.0642743002        1.7002268774
  H        32.3500650730       18.5704668025       14.8396177391
  H        18.8539612718        0.8692090618       12.3351709655
  H        40.5283356155       35.2290618870        3.9519907934
  H        42.3243099303       34.4192127580        3.5901269509
  H        22.0877262150        0.6921623768       12.3515243333
  H        11.5966560553       18.7130408939       12.3826761335
  H        52.2650595601       18.4316254913        3.6770071362
  H        49.2560991138       16.4765865864        3.5840329267
  H        10.1502587302       15.7983025303       12.2928041878
  H        50.8505089594       17.6922827293        3.9542150623
  H        10.0462329707       17.3946636344       12.0518621007
  H        20.2155498569        0.0024609460       12.0418590172
  H        39.1839913489       36.1248563377        3.6867067208
 Ni        31.2034833333       17.8579972034        2.9157541220
 Ni        31.1971041518       16.4038847402        0.0849116794
 Ni        30.0957002905       18.7434540124        0.4107588039
 Ni        30.4357420853       17.5275558668       13.3257373333
  O        10.6499717289       14.3650576099        5.4858606706
  O        12.6131963818       14.6575007638        6.5838827934
  O        49.1481192074       16.8458183008        7.9896635976
  O        50.3503303085       20.9357514610        5.6479304136
  O        48.3486117724       20.5933542133        6.6658698949
  O        11.0519253527       17.0537293238        6.5007525623
  O        50.3210125944       20.8816811680       10.4068886476
  O        48.3467577362       20.5868025635        9.3271382675
  O        49.5439178028       18.2483978441       10.0681596197
  O        12.3592890428       18.6246546958        7.9996412146
  O        48.6932736324       14.1485944361        6.7512996162
  O         8.2099429435       14.2103937664        9.3225359937
  O        10.7354120082       14.5067408252       10.6643121103
  O        12.5718468112       14.5828131042        9.3284842387
  O        22.8445115441        2.0427285742        5.4872903774
  O        21.6059764305        3.5924534406        6.5892227888
  O        42.0581094272       34.1373243886        7.9789179224
  O        37.9811945638       33.1358807318        5.5721385995
  O        39.2172885912       31.5748354564        6.6658098240
  O        20.3083996039        1.0395302000        6.5021513412
  O        38.0243093255       33.1848824968       10.4157687409
  O        39.2184161856       31.5829292204        9.3273625695
  O        40.6522275708       33.7692856890       10.0601180033
  O        18.2556724926        1.3760401058        7.9967472065
  O        44.6222182497       35.1005534861        6.7587762915
  O        24.2053915085        0.0000073910        9.3207564413
  O        22.7529204869        2.0574962726       10.5837117964
  O        21.6245254536        3.5960711787        9.3427872323
  O        27.5052329878       18.7500353235        5.4942247075
  O        26.7664766807       16.9348669681        6.6538397940
  O        30.6399931801       19.3492904960        8.0665801751
  O        33.5863423310       16.2749926687        5.6678571800
  O        34.2730477757       18.1686901568        6.7360275668
  O        29.5734209084       17.0599724970        6.5767686499
  O        33.6182478748       16.3298231211       10.4115296265
  O        34.3037992951       18.2479449640        9.4052130822
  O        31.6517568685       18.3114482913       10.1627254313
  O        30.3238742010       15.1578605265        8.0860665718
  O        28.5538851319       21.0295287140        6.9010594948
  O        28.5151131798       20.9530038110        9.4147436070
  O        27.4575439980       18.6794269152       10.6590701257
  O        26.6945123547       16.9291907037        9.4136845581
  O        13.1486585546       18.6928555051       10.5874391360
  O        13.9192870165       16.9162380817        9.4049818990
  O        50.5966446070       19.3502862592        8.0202423251
  O        47.6835149328       16.3270270143       10.4173705956
  O        46.9524904345       18.1761126095        9.3240037945
  O        11.0700891652       17.0153890820        9.4895574513
  O        47.6756812511       16.3356614698        5.6528234460
  O        46.9277803457       18.2358934840        6.6649730732
  O        49.5689514457       18.3176828738        5.9822192063
  O        10.3187641470       15.1000897434        7.9970711851
  O        52.6708276935       21.0278789501        9.2418107658
  O        12.1468808114       20.8911836050        6.6732559249
  O        13.1087524800       18.6135075732        5.3254893591
  O        13.9575994035       16.9872249685        6.6651828239
  O        29.9933269493       14.4416810890       10.7299276058
  O        28.0894263345       14.6534398352        9.4948296318
  O        32.1366938219       16.8510800849        8.0804954810
  O        30.9621155682       20.9449635510       10.4120073953
  O        32.9427213393       20.6010846850        9.3372587915
  O        29.5693953609       17.0726790336        9.5767201553
  O        30.8485652365       20.8831170152        5.6555923859
  O        32.8672154705       20.5864123123        6.6646431405
  O        31.6838529440       18.2473288731        6.0022481471
  O        28.2832394641       18.6721854292        8.0779728054
  O        32.4923075599       14.2133737473        9.3297461029
  O        32.4055466048       14.2147160728        6.8234452640
  O        29.9235529687       14.4390040480        5.4917143391
  O        28.0415116826       14.5882427336        6.7514355191
  O        17.8892559846        1.9665646779       10.6627656113
  O        18.9562510206        3.5270799259        9.4079359771
  O        39.1685318970       34.1386102533        7.9971334058
  O        43.2801773227       33.0589464124       10.3316851488
  O        42.0343655140       31.5064702280        9.2416050996
  O        20.3176689867        1.0367835409        9.4800151308
  O        43.2760795132       33.1826081838        5.5748925563
  O        42.0052257582       31.5841283137        6.5829810041
  O        40.5788619707       33.7749022941        5.9357765013
  O        22.3673505343        1.3846568200        7.9979128529
  O        36.6728367381       35.0997286000        9.2333274561
  O        16.4457272728        0.0641646798        6.6682220665
  O        17.9365425445        2.0433278361        5.3264317631
  O        18.9191029612        3.5930880092        6.6659344393
  O        29.9043166493       18.8350126827        4.0071944902
  O        29.7427136032       18.8371118795       12.0771846559
  O        31.2526462622       16.3537606498        4.0856023799
  O        31.3533338364       16.3432855703       12.0494322259
  O        32.2241372743       16.8388857398        1.6423275349
  O        28.5094218761       18.0315131507        1.6825165835
  O        30.3270233821       15.9013432385       14.5046351855
  O        31.5165437172       18.0902950644       14.9817263414
  O        31.1856931522       19.4243142897        1.8487019926
  O        39.4569804659       35.2440673246        4.0019919941
  O        19.1419387178        0.0047438773       11.9904550469
  O        41.9694168289       35.1726167457        4.0870935888
  O        21.6913319756       -0.0693371466       11.8959551426
  O        51.3652100819       18.6143293459        4.0053948496
  O        10.7509484247       18.7471671799       11.9049187897
  O        50.0803012839       16.4127679471        4.0916816774
  O         9.5244017766       16.4831503387       11.9911877129
 Zr         9.2978599082       16.0526558527        6.1825480005
 Zr        49.8372591162       16.0065556300        9.7462454847
 Zr        22.0734978560        0.0303486739        6.1887996824
 Zr        42.4611339140       35.1539395799        9.8009326427
 Zr        29.5968368702       19.0733185353        6.2821253909
 Zr        29.5704799042       19.1625402053        9.8736461809
 Zr        11.0389307841       19.0517357453        9.8277669252
 Zr        11.0450397903       19.1546220072        6.2506336916
 Zr        31.3522000551       16.0957978093        9.8845559113
 Zr        31.3902311235       16.0101156118        6.2757464047
 Zr        18.6014241607       -0.0008947288        9.7634349213
 Zr        18.5068125988       -0.0073664960        6.2136006953
 Zr        12.3033984574       16.3236393749        7.9901829707
 Zr        48.6179336704       18.8332632423        8.0100529278
 Zr        20.3155680182        2.4742587247        7.9904044337
 Zr        40.6435848732       32.6874695397        7.9780167007
 Zr        28.3406005532       16.3339624546        8.0826523113
 Zr        32.6272353424       18.8242055363        8.0525214774
  H        28.7542006085       18.3147632862        2.6095822003
  H        29.3838418862       19.7997564352       -0.4198934047
  H        30.6738317651       15.2758243635        0.8169049201
