     570
 i =      331, E =     -4745.5442224078
  C        11.8589048897       14.0534975181        5.7414331162
  C        12.4563317201       12.8906949448        5.0228998416
  C        11.7042881122       12.1714922571        4.0816975531
  C        12.2804619020       11.1092503168        3.3892411059
  C        13.6212086273       10.7396305665        3.6163448236
  C        14.3547824240       11.4435592127        4.5892692477
  C        13.7820925721       12.5085729060        5.2809165955
  C        14.2603285557        9.6486364830        2.8430033040
  C        14.2547566220        9.6558611785        1.4212779504
  C        13.7412077464       10.7576440630        0.6671465481
  C        49.1269961293       21.2331694058        5.8796582111
  C        48.5502005646       22.4011247256        5.1524967019
  C        49.3001535046       23.0683536744        4.1713976726
  C        48.7332173959       24.1075263258        3.4382188934
  C        47.4027200694       24.5092364452        3.6669347068
  C        46.6718281764       23.8604206285        4.6805245867
  C        47.2342878948       22.8154885738        5.4098356573
  C        46.7724253636       25.5869544634        2.8697126049
  C        46.7611851461       25.5573294833        1.4479502094
  C        47.2611674946       24.4423053036        0.7043848268
  C        14.8583091596        8.5692107776        0.7081284180
  C        14.8915396425        8.5970026435        3.5197672555
  C        49.1133292063       21.2035131475       10.1453330247
  C        48.5279087231       22.3649927322       10.8724772394
  C        49.2670499104       23.0256825018       11.8654601480
  C        48.6907124469       24.0603099151       12.5968535301
  C        47.3603437323       24.4571672558       12.3585234534
  C        46.6400700349       23.8123613977       11.3348381357
  C        47.2136282349       22.7763873229       10.6031315310
  C        46.7218452486       25.5321224772       13.1495806740
  C        46.7333844704       25.5283131157       14.5712979925
  C        47.2488421322       24.4290663529       15.3276241753
  C        40.6345690797       17.1618593124       15.3253625410
  C        40.6548498793       17.1867560704       12.5166022909
  C        11.8829069064       14.0861927094       10.2853387222
  C        12.4714851896       12.9097953036       10.9891561164
  C        11.7133705752       12.1767324947       11.9149322812
  C        12.2791487775       11.0937216239       12.5831330076
  C        13.6178016881       10.7192240640       12.3515087051
  C        14.3563192528       11.4345497976       11.3909162633
  C        13.7917039880       12.5163106706       10.7184368523
  C        14.2507769481        9.6221439073       13.1220785646
  C        14.2497193715        9.6424418020       14.5439502751
  C        13.7401195704       10.7516197835       15.2908731202
  C        22.5125482912        3.2449022894        5.7530427088
  C        23.2282583995        4.3497115888        5.0544111196
  C        24.2244394915        4.0690723934        4.1074613311
  C        24.8524084651        5.1082522278        3.4258059927
  C        24.5001325896        6.4504174743        3.6708015413
  C        23.5323888248        6.7225040513        4.6549917035
  C        22.8996908068        5.6851767703        5.3350994943
  C        25.1061102471        7.5565031597        2.8946746671
  C        25.0754291836        7.5501441037        1.4732430773
  C        24.3704162008        6.5519742835        0.7283101572
  C        38.2975123915       31.9286386058        5.8533038993
  C        37.5539165450       30.8407873076        5.1535522448
  C        36.5861896525       31.1502572105        4.1854417696
  C        35.9532228213       30.1339582581        3.4753267073
  C        36.2729395441       28.7823429127        3.7102413167
  C        37.2100845401       28.4800747058        4.7161418780
  C        37.8470122688       29.4955730590        5.4258213125
  C        35.6589846342       27.6974938171        2.9104832422
  C        35.6948851497       27.7168918103        1.4888945776
  C        36.4129391465       28.7152776920        0.7576383412
  C        25.6979961697        8.6197356130        0.7524150283
  C        25.7060560824        8.6303014116        3.5645069945
  C        38.3313119836       31.9628163594       10.1611842570
  C        37.6121918884       30.8935245791       10.9129305440
  C        36.6810181129       31.2110179231       11.9138566974
  C        36.0658273524       30.1996382964       12.6492702353
  C        36.3667484162       28.8443735377       12.4073982428
  C        37.2801000868       28.5365670499       11.3803022946
  C        37.8973677247       29.5447450746       10.6460399482
  C        35.7420738355       27.7516233431       13.1887788858
  C        35.7367855460       27.7449915596       14.6112082207
  C        36.4321815288       28.7294436600       15.3811218780
  C        46.1352942987       26.6208667307       15.2815141171
  C        46.0878954697       26.5805476849       12.4736061147
  C        22.4601380781        3.2557449300       10.2580174934
  C        23.1519301940        4.3646088148       10.9820866075
  C        24.1531560771        4.0797251448       11.9242113349
  C        24.7791515638        5.1106358242       12.6206952918
  C        24.4243331203        6.4562248823       12.3975939160
  C        23.4461340064        6.7343223400       11.4240508876
  C        22.8152947581        5.7036897770       10.7282329184
  C        25.0545211717        7.5548833209       13.1712824529
  C        25.0496757696        7.5485217298       14.5940778966
  C        24.3563406086        6.5522265400       15.3514882813
  C        26.6170738012       17.8595177516        5.7829644753
  C        25.3108484379       17.9112786251        5.0607060367
  C        25.0489260139       18.9140864176        4.1132496813
  C        23.8368693087       18.9347617542        3.4257289809
  C        22.8491098290       17.9574027663        3.6641379227
  C        23.1065315715       16.9784319688        4.6429065707
  C        24.3206784658       16.9510891066        5.3272251961
  C        21.5769715092       17.9439772931        2.8974060707
  C        21.5793460258       17.9284082235        1.4744955436
  C        22.7860662172       17.8106383944        0.7150651551
  C        34.4361480227       17.1924065816        5.9152290722
  C        35.7289671297       17.1430317459        5.1734590139
  C        35.9258689024       16.1937518904        4.1586419428
  C        37.1070865023       16.1873697590        3.4222203432
  C        38.1231210175       17.1275829744        3.6825246813
  C        37.9289709484       18.0554269039        4.7235085351
  C        36.7447649280       18.0686598283        5.4559727792
  C        39.3778062683       17.1432349844        2.8980506702
  C        39.3753236763       17.1742279789        1.4768611329
  C        38.1702654727       17.3132079678        0.7189097619
  C        20.3334004156       17.9453603152        0.7644326211
  C        20.3514507403       17.9415317306        3.5784571556
  C        34.4787251860       17.2496188414       10.1802109063
  C        35.7787411100       17.1832227138       10.9072935840
  C        35.9844906105       16.2170790136       11.9033999973
  C        37.1697893826       16.2052981958       12.6328625028
  C        38.1769813596       17.1582928162       12.3851032169
  C        37.9766614225       18.0990396160       11.3576941955
  C        36.7892030048       18.1166618470       10.6314515646
  C        39.4233284386       17.1805022703       13.1803667896
  C        39.3985967017       17.1942093141       14.6011887005
  C        38.1813899466       17.3211148952       15.3422111943
  C        35.0887877097       26.6720350635       15.3096158308
  C        35.1480271401       26.6866297791       12.5000836518
  C        26.5797972862       17.8293114757       10.3252208812
  C        25.2632788646       17.8834438270       11.0274909825
  C        25.0061555934       18.8868067109       11.9738754620
  C        23.7877368847       18.9180955813       12.6469330527
  C        22.7985128783       17.9452532491       12.3992645438
  C        23.0506938566       16.9672511778       11.4198840836
  C        24.2687408766       16.9345648827       10.7437957758
  C        21.5349481015       17.9275577475       13.1731898151
  C        21.5574651522       17.9176331556       14.5951570704
  C        22.7753793017       17.8047707613       15.3384255864
  C        14.0483476647       17.8300372803       10.2881697466
  C        15.3539803327       17.8906301228       11.0113404099
  C        15.6090330759       18.8945073778       11.9588870893
  C        16.8186909315       18.9189533160       12.6505964509
  C        17.8085242579       17.9426361895       12.4173666082
  C        17.5584044651       16.9634724540       11.4371639790
  C        16.3480438637       16.9342425089       10.7470637895
  C        19.0778272382       17.9288571033       13.1868979843
  C        19.0755512979       17.9248624864       14.6095600929
  C        17.8682259842       17.8221332440       15.3697730633
  C        46.8067288203       17.2207852804       10.1601904222
  C        45.5189061719       17.1661457070       10.9094720791
  C        45.3115563249       16.1939516008       11.8999690262
  C        44.1317103764       16.1851112983       12.6392096222
  C        43.1304153989       17.1484958670       12.4087597798
  C        43.3353037110       18.1005432555       11.3920923284
  C        44.5156926291       18.1134195312       10.6541928079
  C        41.8777998485       17.1684509497       13.1969408521
  C        41.8822175930       17.1693632709       14.6185979890
  C        43.0906731289       17.2574288205       15.3788012729
  C        20.3217878217       17.9386939257       15.3190601973
  C        20.3028806508       17.9133688252       12.5060232600
  C        46.7859211980       17.2303502138        5.8911904663
  C        45.4812304847       17.1241804682        5.1792779099
  C        45.2628508740       16.1305390618        4.2132719995
  C        44.0743191433       16.1074697093        3.4879058778
  C        43.0758370665       17.0747246279        3.7127891601
  C        43.2834861011       18.0361531144        4.7191778492
  C        44.4732916692       18.0660583084        5.4389834559
  C        41.8313181747       17.1056978311        2.9144425378
  C        41.8587609321       17.1352410922        1.4940192985
  C        43.0795130575       17.2390838493        0.7554107993
  C        46.1531521952       26.6372555950        0.7262836279
  C        46.1625966350       26.6560983550        3.5359203034
  C        14.0459340029       17.8316718663        5.7080991535
  C        15.3664252143       17.9062845825        5.0165648485
  C        15.6382861571       18.9210113170        4.0866154888
  C        16.8667436389       18.9591648674        3.4307621188
  C        17.8517717179       17.9817904881        3.6786292299
  C        17.5866133214       16.9959600807        4.6467223495
  C        16.3601443760       16.9572791137        5.3061633621
  C        19.1196444226       17.9597324450        2.9101742385
  C        19.0974875739       17.9398455797        1.4883627335
  C        17.8788036442       17.8289932810        0.7461090700
  C        28.8088892813       14.0898226056       10.3911438758
  C        28.1934205452       12.9179448641       11.0779817972
  C        28.9177855429       12.1694615039       12.0174988558
  C        28.3163854557       11.0958726556       12.6691702467
  C        26.9768456543       10.7461806962       12.4046174445
  C        26.2740169595       11.4742653647       11.4279017141
  C        26.8728651325       12.5487452402       10.7752106882
  C        26.3072872233        9.6671153259       13.1666389181
  C        26.2986522639        9.6927569951       14.5878078763
  C        26.8060763855       10.8044456386       15.3325491767
  C        32.1603994554       21.2717235912       10.1464877735
  C        32.7385990219       22.4440574830       10.8667888236
  C        31.9795817625       23.1346203780       11.8243190569
  C        32.5461588536       24.1748503735       12.5550243593
  C        33.8868924307       24.5528158111       12.3482482013
  C        34.6278157636       23.8833969720       11.3561001730
  C        34.0638476320       22.8383478081       10.6278134560
  C        34.5144542965       25.6244982556       13.1542009400
  C        34.4909496821       25.5957040827       14.5755809351
  C        33.9624855574       24.4862024335       15.3082638897
  C        25.6891897091        8.6153603594       15.3075648031
  C        25.6683495165        8.6173969886       12.4941151723
  C        32.0781011538       21.2022062898        5.8764408264
  C        32.6412376690       22.3694579859        5.1362512809
  C        31.8964527311       23.0279770641        4.1456683850
  C        32.4628408560       24.0711780346        3.4150689306
  C        33.7879391911       24.4858443454        3.6557888604
  C        34.5137235180       23.8414545945        4.6763359421
  C        33.9524526234       22.7950301276        5.4024319566
  C        34.4249008331       25.5732912323        2.8757326048
  C        34.4443386397       25.5701248596        1.4533514261
  C        33.9399239707       24.4739264790        0.6849235985
  C        40.6223512262       17.1478829621        0.7694663924
  C        40.6003183987       17.1261759529        3.5786656501
  C        28.7478898258       14.0679331646        5.8180714072
  C        28.1388395715       12.9217577914        5.0802720561
  C        28.8726493503       12.2282324987        4.1057569158
  C        28.2916596005       11.1721077655        3.4079261956
  C        26.9604964436       10.7828391346        3.6590187441
  C        26.2438927643       11.4637925256        4.6609750868
  C        26.8232498474       12.5203820701        5.3607111633
  C        26.3175072270        9.6928622659        2.8863434376
  C        26.3048182047        9.7064165271        1.4643309672
  C        26.8064271425       10.8124858112        0.7086770181
  C        18.1353030937        3.1795971642       10.3176638633
  C        17.4047844068        4.2763348268       11.0157553277
  C        16.3901230653        3.9973208193       11.9442483990
  C        15.7415854297        5.0369675950       12.6074948353
  C        16.0916866962        6.3810042748       12.3667634343
  C        17.0800437563        6.6510680123       11.4020918389
  C        17.7298036539        5.6140940861       10.7371243236
  C        15.4669974805        7.4885990192       13.1297035490
  C        15.4827210102        7.4884151927       14.5514421228
  C        16.1848457513        6.4953003929       15.3047447473
  C        42.9456504216       31.8597268951       10.0726016982
  C        43.6459006668       30.7722491141       10.8170465142
  C        44.5910575528       31.0935826715       11.8034644238
  C        45.1968310363       30.0880285266       12.5510990909
  C        44.8708704678       28.7349077885       12.3358783635
  C        43.9454639483       28.4205796825       11.3222599960
  C        43.3365593781       29.4257120581       10.5742980767
  C        45.4885051774       27.6555443169       13.1389599225
  C        45.4925921928       27.6810478790       14.5606613928
  C        44.8054197609       28.6889713718       15.3073813472
  C        14.8538990893        8.5611093918       15.2636662141
  C        14.8716545951        8.5602874035       12.4509754919
  C        42.9463299242       31.9616733149        5.8091054814
  C        43.6918891895       30.8854888143        5.0958456757
  C        44.6561231558       31.1914157658        4.1232075530
  C        45.2776638987       30.1718479174        3.4054449775
  C        44.9542164865       28.8214963543        3.6433183222
  C        44.0212215008       28.5238139644        4.6545553288
  C        43.3929677134       29.5405670701        5.3667808081
  C        45.5631523812       27.7240919895        2.8579779909
  C        45.5331696461       27.7173432612        1.4366776333
  C        44.8267683833       28.7075557805        0.6837761336
  C        35.0661151600       26.6583436190        0.7547967508
  C        35.0428639514       26.6248020997        3.5648579897
  C        18.1483274431        3.2469874949        5.7066048281
  C        17.4298007681        4.3438094333        4.9972952331
  C        16.4143073673        4.0524297937        4.0740491612
  C        15.7659026747        5.0829662265        3.3986169599
  C        16.1207786500        6.4282506626        3.6208478839
  C        17.1124882484        6.7117391273        4.5777411338
  C        17.7602624552        5.6829181620        5.2575914271
  C        15.4899717299        7.5237499400        2.8483177439
  C        15.4950545874        7.5065088282        1.4271712924
  C        16.1916573599        6.5046499063        0.6805515099
  H        10.6720254729       12.4654133008        3.9051340705
  H        11.6938670421       10.5505414548        2.6631253656
  H        15.3919941748       11.1692760876        4.7704483139
  H        14.3519712738       13.0720537753        6.0158384137
  H        13.3744652466       11.6300066512        1.2002562663
  H        50.3228592037       22.7483064502        3.9866435198
  H        49.3197058272       24.6227584740        2.6806163837
  H        45.6423828177       24.1612876994        4.8637899286
  H        46.6633802911       22.2902976090        6.1720432966
  H        47.6298184012       23.5759465699        1.2460220742
  H        14.8726019058        8.5887902229        4.6080916284
  H        50.2870805145       22.7028064494       12.0604319713
  H        49.2691219977       24.5757377431       13.3603687325
  H        45.6107558691       24.1097828276       11.1455692550
  H        46.6529356138       22.2543378723        9.8313987402
  H        47.6077592569       23.5520442393       14.7966603805
  H        40.6619660486       17.1495007261       11.4289673629
  H        48.6870859164       14.0949557291        7.8000093261
  H        10.6800389987       12.4663509229       12.0922349471
  H        11.6868905209       10.5235450558       13.2956141887
  H        15.3916629972       11.1562135318       11.2051605091
  H        14.3646592061       13.0855434773        9.9902743598
  H        13.3731639395       11.6201009443       14.7521138255
  H        47.9302810474       14.2182921050        9.7110816863
  H        47.7801711972       14.3737597482        6.4952115861
  H        49.0852076586       18.5527916281       10.8677097661
  H        10.4163295040       14.1342345136        7.9987205699
  H        24.4841374240        3.0303274481        3.9158397457
  H        25.6247845411        4.8903746608        2.6913772678
  H        23.2530843308        7.7557105126        4.8506497105
  H        22.1302602146        5.8861846901        6.0765246327
  H        23.8093484642        5.7957550872        1.2695402519
  H        36.3553619844       32.1949639455        3.9910168091
  H        35.2037623534       30.3782722223        2.7256837459
  H        37.4648423437       27.4393311099        4.9055278215
  H        38.5963134714       29.2694085622        6.1808370080
  H        36.9804039623       29.4595022239        1.3087333078
  H        25.7434667008        8.6126856357        4.6522377789
  H        36.4585263239       32.2571189473       12.1116668633
  H        35.3368354043       30.4525309686       13.4160070833
  H        37.5264844844       27.4944409962       11.1878311794
  H        38.6228846780       29.3112318626        9.8705203572
  H        37.0153028758       29.4840587015       14.8609846936
  H        46.1095229116       26.5881284361       11.3855741048
  H        44.6706847781       35.1164530851        7.8102672777
  H        24.4319696101        3.0418868216       12.0919374000
  H        25.5593818378        4.8828117030       13.3438017928
  H        23.1606811760        7.7685488021       11.2426926505
  H        22.0443000571        5.9157147787        9.9910936205
  H        23.7838658888        5.7967615767       14.8211456910
  H        44.9547917938       34.3900427256        9.6949694403
  H        44.9005757292       34.2059308388        6.4887260353
  H        40.6661540584       33.2103281437       10.8525676516
  H        23.1515744082        1.9583604269        8.0043691405
  H        25.8056677598       19.6737069139        3.9308071633
  H        23.6400453811       19.7175467905        2.6962939482
  H        22.3560257339       16.2146927424        4.8364075270
  H        24.5297285077       16.1803181978        6.0654281920
  H        23.7273453081       17.6921902294        1.2439688838
  H        35.1362689661       15.4743069480        3.9550887640
  H        37.2592908183       15.4441620403        2.6426050563
  H        38.7059684707       18.7889385781        4.9286684646
  H        36.5773906212       18.8004510254        6.2428351688
  H        37.2320429252       17.4423716528        1.2507501969
  H        20.3569032766       17.9775354566        4.6664759294
  H        35.1963053373       15.4943577838       12.1016279908
  H        37.3299252032       15.4527478169       13.4018306390
  H        38.7486389066       18.8404390778       11.1621815770
  H        36.6125500769       18.8599893523        9.8576696909
  H        37.2515214526       17.4553279686       14.7972322546
  H        35.1329290288       26.7118555644       11.4121313025
  H        28.5099040688       21.0832414408        7.9679352664
  H        25.7765343029       19.6302456627       12.1663712607
  H        23.5885504261       19.7001490210       13.3764171875
  H        22.2957651951       16.2089122493       11.2225779847
  H        24.4787525544       16.1668839213       10.0029270922
  H        23.7084482080       17.6824401482       14.7963854656
  H        28.9935390046       21.7205273186        9.7669024503
  H        29.1426854767       21.7505216047        6.6109276784
  H        32.1734050001       18.5572080597       10.9148463122
  H        27.4078428151       19.0790410428        8.0878543862
  H        14.8486183753       19.6512809866       12.1382791091
  H        17.0118851951       19.7036430488       13.3789431034
  H        18.3118157046       16.2016987572       11.2472721816
  H        16.1442145691       16.1644836964       10.0064908177
  H        16.9264530325       17.7048101326       14.8415825402
  H        46.0918407462       15.4590084586       12.0833918748
  H        43.9703565030       15.4233721853       13.3987939318
  H        42.5699337789       18.8523135463       11.2108938181
  H        44.6913923275       18.8625631022        9.8857910566
  H        44.0332249390       17.3705030110       14.8507763361
  H        20.2977015677       17.9434900791       11.4178794599
  H        46.0404762122       15.3921362731        4.0316580491
  H        43.9072357469       15.3377336403        2.7375908005
  H        42.5163751796       18.7864268582        4.8990480860
  H        44.6568161391       18.8281100615        6.1923580718
  H        44.0135810460       17.3368423653        1.3010192064
  H        46.1997190775       26.6826888896        4.6233533669
  H        52.7412878616       21.0626522614        8.1947212916
  H        14.8769804822       19.6738620695        3.8945329956
  H        17.0762579405       19.7494130147        2.7130426897
  H        18.3381013773       16.2347987858        4.8462763997
  H        16.1408417073       16.1831088215        6.0374521745
  H        16.9450216896       17.7167728162        1.2888071896
  H        52.3226661740       21.6733118607        6.2941828323
  H        52.0131280769       21.7019591343        9.4955772324
  H        49.0679655252       18.6076972925        5.2040496457
  H        13.2479334979       19.0160133655        7.9771252933
  H        29.9499436313       12.4431673928       12.2239968606
  H        28.8792532062       10.5156077370       13.3970929241
  H        25.2388639660       11.2141246719       11.2165616847
  H        26.3275045273       13.1326222039       10.0378560345
  H        27.1697611293       11.6730626496       14.7918770004
  H        30.9468928983       22.8376231535       11.9907575563
  H        31.9526814134       24.7087964927       13.2939434490
  H        35.6651971603       24.1668758383       11.1904949964
  H        34.6409410362       22.2953310854        9.8829231776
  H        33.5984352076       23.6227847554       14.7587961475
  H        25.6957655759        8.5987736836       11.4060276445
  H        30.8764022781       22.7027131621        3.9536322181
  H        31.8774770869       24.5814867070        2.6532538154
  H        35.5393213432       24.1493470321        4.8691117343
  H        34.5202088770       22.2765692746        6.1713268768
  H        33.5594753524       23.6004027411        1.2068082723
  H        40.5923969159       17.0746152296        4.6657372222
  H        32.5122935067       14.1475407516        8.2368376268
  H        29.8997084422       12.5292895742        3.9129758822
  H        28.8688645738       10.6309462389        2.6613528936
  H        25.2138935127       11.1763118742        4.8619012170
  H        26.2661160927       13.0614233075        6.1218265545
  H        27.1688882457       11.6876799135        1.2400399716
  H        33.3070433910       14.2358037126        6.4646735310
  H        33.4113177009       14.3852741302        9.6022056803
  H        32.1258078471       18.5005885670        5.1659449940
  H        30.2240378990       14.1916414312        8.0692104864
  H        16.1199303874        2.9605408984       12.1318160811
  H        14.9529694541        4.8170508916       13.3239080446
  H        17.3612985652        7.6841240403       11.2082403659
  H        18.5110948438        5.8173214902       10.0086463127
  H        16.7515346585        5.7380092138       14.7713246131
  H        44.8271814105       32.1406618590       11.9778836958
  H        45.9364829764       30.3418588342       13.3072273754
  H        43.6833016307       27.3784516056       11.1516851519
  H        42.6004179843       29.1903839909        9.8091745105
  H        44.2300543148       29.4367841921       14.7691571170
  H        14.8478113278        8.5432949409       11.3627592996
  H        44.8993797935       32.2341122818        3.9314748627
  H        46.0242828363       30.4131569981        2.6519448018
  H        43.7646185606       27.4840534313        4.8464303712
  H        42.6468175179       29.3177864946        6.1255769278
  H        44.2683240940       29.4704495626        1.2184174691
  H        34.9998337202       26.6327367358        4.6523774666
  H        36.6078502217       35.1346430760        8.1846514719
  H        16.1430449930        3.0128391938        3.9047093195
  H        14.9733725962        4.8560168619        2.6887930266
  H        17.3963127911        7.7471964647        4.7541964104
  H        18.5434342364        5.8935781692        5.9819748953
  H        16.7636722343        5.7548687576        1.2190076459
  H        36.2781574071       34.4834210151        6.2733435059
  H        36.3856252668       34.2073472755        9.4995504770
  H        40.5781905776       33.2020294748        5.1538580260
  H        17.4749040103        1.9458385047        7.9766940590
  H        30.2432254196       19.8373953790       12.4243304327
  H        28.8664348506       18.4680930855        3.8445077538
  H        31.4394314568       15.6845826699        3.5114328063
  H        31.0969504553       15.5187321937       12.4428134654
  H        29.3879799874       15.8284053009       14.5448534456
  H        30.1946071014       19.9663889224        1.9729973657
  H        32.7309257196       17.5485288064        1.4128856716
  H        32.8450354428       18.3398856269       14.8141016494
  H        18.9046145432        0.8520399796       12.3623092628
  H        40.5248312953       35.2294066546        3.9513824372
  H        42.3246698653       34.4192533955        3.5892235227
  H        22.0968081671        0.6989904451       12.3435127610
  H        11.5968421758       18.7129566964       12.3827789870
  H        52.2648862379       18.4312596906        3.6771285543
  H        49.2549422191       16.4768915963        3.5846369382
  H        10.1506225973       15.7981806688       12.2925204319
  H        50.8501161731       17.6924790373        3.9541646169
  H        10.0464166873       17.3945184605       12.0519312660
  H        20.2923742099        0.0045413704       12.0340231369
  H        39.1820664030       36.1252510613        3.6890149166
 Ni        30.8966864167       17.8468485284        2.8344686617
 Ni        31.1164333297       16.4971825134        0.0782274748
 Ni        30.7367745634       18.8172718650       -0.2511743575
 Ni        30.4752667111       17.5944226417       13.1637139914
  O        10.6499882795       14.3650913900        5.4858580145
  O        12.6132030508       14.6574984736        6.5838717743
  O        49.1481005891       16.8458164031        7.9897503412
  O        50.3503289611       20.9357879974        5.6479905098
  O        48.3485692122       20.5933674878        6.6658554113
  O        11.0520406747       17.0536460806        6.5008047884
  O        50.3210053463       20.8816884405       10.4069170250
  O        48.3467571690       20.5868255119        9.3271815395
  O        49.5443271836       18.2484018922       10.0682493671
  O        12.3592980514       18.6246033950        7.9997227622
  O        48.6933049954       14.1485405953        6.7513132714
  O         8.2098953071       14.2104261641        9.3225753926
  O        10.7353877842       14.5067915634       10.6642991453
  O        12.5718712561       14.5827353065        9.3285616608
  O        22.8445697384        2.0432998353        5.4869621139
  O        21.6057249679        3.5923355405        6.5894190907
  O        42.0594452772       34.1370350684        7.9767898183
  O        37.9812772559       33.1368785522        5.5728957822
  O        39.2172865334       31.5749885733        6.6661037252
  O        20.3090825157        1.0397500217        6.5018200287
  O        38.0256942216       33.1868182120       10.4162217644
  O        39.2182456079       31.5832038395        9.3281238151
  O        40.6543959327       33.7683000748       10.0579976670
  O        18.2592035685        1.3739849384        7.9982547225
  O        44.6227800433       35.1002788330        6.7567734192
  O        24.2068513710       -0.0001292914        9.3203334310
  O        22.7530247611        2.0572553904       10.5835305511
  O        21.6245131665        3.5957560975        9.3423130583
  O        27.5012211857       18.7491235002        5.4899658456
  O        26.7618223714       16.9380286539        6.6541138014
  O        30.6643296030       19.4030933376        8.0659905506
  O        33.5798423730       16.2764227239        5.6623481698
  O        34.2749398080       18.1660530143        6.7325745848
  O        29.5732618202       17.0630494217        6.5857165021
  O        33.6222422528       16.3307932473       10.4087942199
  O        34.3075201835       18.2503521853        9.4021988785
  O        31.7142667777       18.3121663022       10.0950088660
  O        30.3235685466       15.1578490182        8.0826641086
  O        28.5523317802       21.0324870173        6.9003244271
  O        28.5151922506       20.9526506301        9.4113376758
  O        27.4715981805       18.6740449884       10.6594127583
  O        26.6961340461       16.9289227324        9.4118208670
  O        13.1492290264       18.6929006285       10.5873827973
  O        13.9200329856       16.9163903619        9.4054110844
  O        50.5966189235       19.3502995447        8.0205255584
  O        47.6831402602       16.3271839874       10.4174793317
  O        46.9524068123       18.1760961463        9.3241027044
  O        11.0701902065       17.0152828216        9.4896061217
  O        47.6762620306       16.3354208975        5.6531572124
  O        46.9280587080       18.2357810018        6.6651494215
  O        49.5689895357       18.3176838540        5.9823316525
  O        10.3187718997       15.1000737675        7.9971084992
  O        52.6707505839       21.0278624124        9.2418190160
  O        12.1468504762       20.8911800888        6.6732503277
  O        13.1081412792       18.6136675583        5.3255630453
  O        13.9575564855       16.9872440972        6.6651112470
  O        29.9939411191       14.4406084593       10.7265682304
  O        28.0898021678       14.6538680430        9.4940742629
  O        32.1371039853       16.8554484834        8.0632860019
  O        30.9532437463       20.9491578256       10.4239957801
  O        32.9185058498       20.6574607645        9.3253173476
  O        29.5726485674       17.0791112979        9.5801357670
  O        30.8521962671       20.8844442571        5.6564014648
  O        32.8709939038       20.5869950646        6.6633272535
  O        31.6825296077       18.2539726419        5.9960301417
  O        28.2915881038       18.6765250621        8.0739470648
  O        32.4932574393       14.2113517400        9.3236017613
  O        32.4037724763       14.2175257524        6.8234940707
  O        29.9228393495       14.4385966179        5.4922650681
  O        28.0406824704       14.5906872064        6.7517344980
  O        17.8898217508        1.9652297665       10.6634514273
  O        18.9561071763        3.5265634846        9.4084176253
  O        39.1692317905       34.1391339299        7.9993826377
  O        43.2804013883       33.0593375616       10.3313657676
  O        42.0344610535       31.5066130000        9.2414877487
  O        20.3215247919        1.0375163097        9.4788737747
  O        43.2760625230       33.1825906394        5.5747537533
  O        42.0051247777       31.5841813640        6.5829967484
  O        40.5787717128       33.7748988056        5.9358237129
  O        22.3685828579        1.3849205717        7.9971506318
  O        36.6741851226       35.0997295664        9.2357323559
  O        16.4460369938        0.0647580557        6.6681188138
  O        17.9365595116        2.0433415097        5.3266075380
  O        18.9188637595        3.5931498230        6.6660198731
  O        29.7688073343       18.7647012361        4.0731384012
  O        29.9154101931       18.9955950975       12.0614574999
  O        31.1420090195       16.4196286036        4.0773763325
  O        31.3360672201       16.3502547889       11.9868827737
  O        32.0311236139       16.9125033053        1.6564165251
  O        30.3274017587       16.0508876721       14.4207078782
  O        32.0268472854       17.8127718689       14.7599419919
  O        30.7421246436       19.2604495295        1.5856874016
  O        39.4555461759       35.2438271522        4.0021637930
  O        19.2009868552        0.0037951026       11.9878614954
  O        41.9698610358       35.1724364226        4.0865839697
  O        21.7009395713       -0.0689405423       11.8979967712
  O        51.3650626862       18.6143030278        4.0053792491
  O        10.7511823075       18.7471712678       11.9049339388
  O        50.0794341600       16.4127648154        4.0917707723
  O         9.5246462494       16.4830687511       11.9912253946
 Zr         9.2978230804       16.0526013426        6.1825621295
 Zr        49.8370917250       16.0065287164        9.7462818557
 Zr        22.0728293815        0.0312246027        6.1858674456
 Zr        42.4638606289       35.1526653801        9.7915409049
 Zr        29.6061212931       19.0923900539        6.2855958269
 Zr        29.5896699550       19.1702503489        9.8603472796
 Zr        11.0391015119       19.0515987601        9.8278399531
 Zr        11.0447186937       19.1545670629        6.2508763991
 Zr        31.3656508771       16.0921556114        9.8468114282
 Zr        31.3752893718       16.0218935563        6.2644499664
 Zr        18.6074681138        0.0010968697        9.7752420311
 Zr        18.5064611154       -0.0080896579        6.2169658374
 Zr        12.3033440205       16.3234926534        7.9904515322
 Zr        48.6177927422       18.8332513670        8.0102021493
 Zr        20.3150480308        2.4747423313        7.9898740240
 Zr        40.6415098395       32.6880375515        7.9777592129
 Zr        28.3412263984       16.3371287895        8.0879502808
 Zr        32.6388778274       18.8385919569        8.0485712969
  H        30.2950920066       20.0915284960       -0.8310184603
  H        30.1740791446       15.7211997160        0.8577309962
