     570
 i =      238, E =     -4745.6028353519
  C        11.8586781966       14.0535098215        5.7415994482
  C        12.4561276442       12.8904841832        5.0234227223
  C        11.7045638042       12.1718041734        4.0814658787
  C        12.2809426036       11.1096129129        3.3891060097
  C        13.6214269273       10.7396086979        3.6170534859
  C        14.3544469795       11.4429027981        4.5908413696
  C        13.7815529345       12.5078586062        5.2823695830
  C        14.2609931198        9.6490100162        2.8436120294
  C        14.2563925597        9.6570004248        1.4219127482
  C        13.7431942189       10.7591084850        0.6680044050
  C        49.1267019428       21.2332367717        5.8797500553
  C        48.5499608015       22.4011228659        5.1526743213
  C        49.2999866368       23.0683868371        4.1716234366
  C        48.7330688921       24.1075100218        3.4384096509
  C        47.4025473432       24.5092257659        3.6670545591
  C        46.6716113968       23.8604159982        4.6806275409
  C        47.2340372445       22.8155194003        5.4100042191
  C        46.7723469553       25.5869273008        2.8697673987
  C        46.7614248759       25.5573283855        1.4480036578
  C        47.2613641238       24.4422431847        0.7045007388
  C        14.8603857179        8.5706965626        0.7086466688
  C        14.8917978666        8.5970673061        3.5202555384
  C        49.1131561409       21.2034302017       10.1453737175
  C        48.5278780857       22.3648573613       10.8723946122
  C        49.2671106791       23.0255204158       11.8653560325
  C        48.6908024397       24.0600702143       12.5968242378
  C        47.3603957314       24.4568896653       12.3585911423
  C        46.6399768152       23.8120171866       11.3350456706
  C        47.2134932825       22.7761018504       10.6032515912
  C        46.7219667292       25.5318381435       13.1496506912
  C        46.7337285835       25.5281861720       14.5713526231
  C        47.2491184018       24.4289564630       15.3277388844
  C        40.6206627313       17.0765106205       15.3085597376
  C        40.6298331288       17.0957195218       12.4987138772
  C        11.8829390438       14.0864958381       10.2854788598
  C        12.4722374637       12.9106794226       10.9896511830
  C        11.7148259214       12.1776798563       11.9160119111
  C        12.2814247249       11.0952421344       12.5844425747
  C        13.6201464344       10.7212876855       12.3523756408
  C        14.3579496394       11.4365704788       11.3912206836
  C        13.7925188640       12.5177199255       10.7185092681
  C        14.2538175746        9.6246240618       13.1228261771
  C        14.2525532987        9.6446452295       14.5446658167
  C        13.7426740717       10.7535882603       15.2917490156
  C        22.5112486004        3.2438158361        5.7534097656
  C        23.2249623840        4.3489787156        5.0538535959
  C        24.2192909414        4.0690079946        4.1049859581
  C        24.8449261203        5.1089304231        3.4225001829
  C        24.4916653199        6.4503126232        3.6693948475
  C        23.5258763180        6.7217644002        4.6554794907
  C        22.8954543724        5.6837305184        5.3361675826
  C        25.0948547814        7.5576968451        2.8939087833
  C        25.0611885728        7.5538923273        1.4726913379
  C        24.3576189338        6.5554274004        0.7268262179
  C        38.3036754843       31.9300170947        5.8487627420
  C        37.5765636410       30.8400868501        5.1382071827
  C        36.6172107320       31.1426763204        4.1599838092
  C        36.0026056334       30.1213432193        3.4411483531
  C        36.3329361082       28.7729278972        3.6794118180
  C        37.2630811684       28.4777764280        4.6936940687
  C        37.8817516638       29.4977681944        5.4113392574
  C        35.7315239949       27.6805994061        2.8830935921
  C        35.7594146635       27.6961264385        1.4619139820
  C        36.4647037246       28.6983411593        0.7238671578
  C        25.6800688154        8.6262702903        0.7532563394
  C        25.6954545418        8.6300468368        3.5651170430
  C        38.3286118691       31.9618681649       10.1560093012
  C        37.6070750813       30.8880447194       10.8970720666
  C        36.6781161151       31.1956350337       11.9028320488
  C        36.0687830920       30.1762923269       12.6318366408
  C        36.3740832435       28.8239456398       12.3786888281
  C        37.2803403684       28.5263173675       11.3425657308
  C        37.8918325965       29.5421416652       10.6148273768
  C        35.7672494553       27.7244889841       13.1632761754
  C        35.7777631987       27.7186577000       14.5852106332
  C        36.4730611175       28.7094240171       15.3471975723
  C        46.1357246888       26.6208178380       15.2814932071
  C        46.0880075815       26.5801976914       12.4735992375
  C        22.4597795377        3.2561201239       10.2578485592
  C        23.1506676072        4.3662130146       10.9813814650
  C        24.1508659211        4.0829931330       11.9249889213
  C        24.7750477986        5.1151736068       12.6213442642
  C        24.4193515151        6.4601924196       12.3964349128
  C        23.4425163147        6.7366380683       11.4211344999
  C        22.8135180624        5.7047451308       10.7254919486
  C        25.0460749375        7.5602400529       13.1711002039
  C        25.0364305931        7.5548467152       14.5938787002
  C        24.3440007368        6.5569243899       15.3499757415
  C        26.6154057605       17.8587412049        5.7820625252
  C        25.3086377535       17.9064840149        5.0585578362
  C        25.0409959554       18.9135536604        4.1176642257
  C        23.8282086466       18.9328898616        3.4315260085
  C        22.8455553757       17.9498067077        3.6661765029
  C        23.1084508300       16.9656798887        4.6377507574
  C        24.3238017601       16.9400214033        5.3202997164
  C        21.5727996932       17.9367554881        2.9010627929
  C        21.5748626195       17.9195802639        1.4787044192
  C        22.7819166513       17.7985753751        0.7204903520
  C        34.4393261250       17.1888978694        5.9189886612
  C        35.7331083690       17.1364936489        5.1759998412
  C        35.9418251802       16.1587672493        4.1905678264
  C        37.1212303860       16.1437233962        3.4514809869
  C        38.1257202178       17.1047289868        3.6779679926
  C        37.9206645322       18.0627253473        4.6891685112
  C        36.7379541845       18.0834159498        5.4253617507
  C        39.3783627714       17.1096348685        2.8879694163
  C        39.3698384259       17.1085660198        1.4659423488
  C        38.1601732635       17.2195980704        0.7106121847
  C        20.3293403145       17.9382360457        0.7683111718
  C        20.3476286130       17.9372827044        3.5820051747
  C        34.4387998273       17.2361238688       10.1869916516
  C        35.7389971396       17.1363116933       10.9120767682
  C        35.9467754513       16.1489878183       11.8867243342
  C        37.1377865041       16.1143860461       12.6081510742
  C        38.1496512638       17.0664105869       12.3752717075
  C        37.9478101486       18.0273723057       11.3669478739
  C        36.7564774875       18.0665183467       10.6484988879
  C        39.4001107415       17.0788941845       13.1671282355
  C        39.3811330075       17.0928111870       14.5885492230
  C        38.1654725942       17.2103683382       15.3337852825
  C        35.1468033626       26.6403337823       15.2901690261
  C        35.1774601413       26.6530036347       12.4811857227
  C        26.5750306178       17.8258945157       10.3257911820
  C        25.2621063899       17.8674953479       11.0375966307
  C        24.9971933466       18.8754829666       11.9772826523
  C        23.7791561728       18.9024875746       12.6511857309
  C        22.7963282542       17.9220737017       12.4081856251
  C        23.0566458691       16.9376826522       11.4377282433
  C        24.2755240280       16.9081676863       10.7626338056
  C        21.5310767807       17.9075436533       13.1787636835
  C        21.5533628653       17.9025134085       14.6002409270
  C        22.7709530015       17.7897491644       15.3440934713
  C        14.0471939567       17.8292416993       10.2886065968
  C        15.3524929830       17.8874824825       11.0131798570
  C        15.6099740821       18.8924501939       11.9587499618
  C        16.8193360864       18.9145001372       12.6511520138
  C        17.8058523135       17.9343136378       12.4205394830
  C        17.5532290991       16.9536393299       11.4426188102
  C        16.3433384643       16.9271320224       10.7516634486
  C        19.0746354131       17.9178628042       13.1906781531
  C        19.0718145105       17.9175611685       14.6133107702
  C        17.8638443021       17.8209133098       15.3733823001
  C        46.8022569765       17.2157934268       10.1565833401
  C        45.5085674113       17.1444098670       10.8963898540
  C        45.3038103883       16.1593911460       11.8751836825
  C        44.1197213639       16.1301216588       12.6072348529
  C        43.1091899474       17.0856315640       12.3833776428
  C        43.3103969168       18.0492567599       11.3764698018
  C        44.4954880803       18.0824532939       10.6451220201
  C        41.8561474048       17.0880854799       13.1737764913
  C        41.8654935244       17.0907568882       14.5960424040
  C        43.0760929699       17.1916568078       15.3514225553
  C        20.3177374349       17.9289672390       15.3233045886
  C        20.2999522453       17.8954798260       12.5102804277
  C        46.7853689568       17.2323877787        5.8863122851
  C        45.4844735722       17.1279643979        5.1656828683
  C        45.2677835508       16.1281131725        4.2051843253
  C        44.0810267929       16.0993602637        3.4767620615
  C        43.0807844517       17.0677386494        3.6907936493
  C        43.2888900189       18.0389701839        4.6880960087
  C        44.4765429665       18.0737321600        5.4121502811
  C        41.8330166505       17.0842406331        2.8954724519
  C        41.8538351635       17.0876607633        1.4740693906
  C        43.0706756151       17.1871686433        0.7284535499
  C        46.1534575612       26.6372275268        0.7262491357
  C        46.1623663804       26.6560371977        3.5358930955
  C        14.0445033289       17.8314154505        5.7087286924
  C        15.3647326701       17.9055591640        5.0173245350
  C        15.6381636364       18.9233186459        4.0914379966
  C        16.8668093504       18.9613457156        3.4362109663
  C        17.8488731946       17.9806610163        3.6813861756
  C        17.5820994742       16.9913614340        4.6451701271
  C        16.3555559249       16.9529450117        5.3040170611
  C        19.1162296136       17.9574374446        2.9132407372
  C        19.0935140510       17.9370059873        1.4917724673
  C        17.8744218380       17.8294770573        0.7496228248
  C        28.8066618078       14.0923543022       10.3951696915
  C        28.1890819279       12.9224753254       11.0842364628
  C        28.9044927594       12.1877662699       12.0412646314
  C        28.3008836435       11.1147696529       12.6919870232
  C        26.9677634296       10.7531804893       12.4102035216
  C        26.2744442581       11.4686982845       11.4176123939
  C        26.8757635526       12.5417213441       10.7650866986
  C        26.2949823938        9.6749131533       13.1696238843
  C        26.2785260846        9.7029882308       14.5905205144
  C        26.7768102007       10.8179425869       15.3367652806
  C        32.1805815226       21.2376445588       10.1444065871
  C        32.7763927106       22.4022014132       10.8645373170
  C        32.0258544844       23.0860442378       11.8332748948
  C        32.5967215474       24.1250413718       12.5618540662
  C        33.9337214594       24.5084022184       12.3418651265
  C        34.6669502525       23.8437299140       11.3409890169
  C        34.0984333998       22.7990316672       10.6146528881
  C        34.5622032294       25.5842453990       13.1418857775
  C        34.5528407033       25.5569857118       14.5635474815
  C        34.0403849953       24.4439921582       15.3026416735
  C        25.6715050778        8.6234080097       15.3086496120
  C        25.6617636875        8.6225518728       12.4954568394
  C        32.1089216968       21.2301499256        5.8861430370
  C        32.7003809845       22.3836686539        5.1459059699
  C        31.9596683789       23.0586225989        4.1632878420
  C        32.5417392791       24.0839131483        3.4218549533
  C        33.8779954501       24.4669454941        3.6484094146
  C        34.6015926249       23.8081699461        4.6607426955
  C        34.0246570253       22.7752142960        5.3950579307
  C        34.5178868636       25.5468223436        2.8619995381
  C        34.5287286209       25.5383121901        1.4401929195
  C        34.0273495498       24.4352944872        0.6796424864
  C        40.6144213425       17.0799341748        0.7536714860
  C        40.6038167278       17.1137062405        3.5638746519
  C        28.7419692187       14.0652993162        5.8184759995
  C        28.1313789200       12.9183075926        5.0826339170
  C        28.8613878111       12.2288380616        4.1026487922
  C        28.2779313752       11.1743209179        3.4044365582
  C        26.9484225552       10.7831076529        3.6611584368
  C        26.2360438042       11.4596662824        4.6689056267
  C        26.8178190626       12.5148226658        5.3687070311
  C        26.3029048337        9.6953565689        2.8881475167
  C        26.2846827732        9.7130484068        1.4665345382
  C        26.7781530656       10.8239807272        0.7127910325
  C        18.1353952377        3.1809479214       10.3171573637
  C        17.4062033543        4.2782468204       11.0158975369
  C        16.3903555435        3.9999436971       11.9432735750
  C        15.7426462922        5.0399558872       12.6067479537
  C        16.0947218443        6.3836399503       12.3671492197
  C        17.0842723661        6.6531218332       11.4035594475
  C        17.7333403387        5.6157389590       10.7385422257
  C        15.4703966462        7.4913702421       13.1301607663
  C        15.4856861724        7.4907242806       14.5518714777
  C        16.1873302073        6.4971649679       15.3050342970
  C        42.9459547569       31.8595444908       10.0728994716
  C        43.6463506299       30.7718693814       10.8168632043
  C        44.5919965805       31.0931960325       11.8028156438
  C        45.1977093887       30.0876510547       12.5504842442
  C        44.8712107659       28.7345959605       12.3356779103
  C        43.9452201283       28.4202466365       11.3226235688
  C        43.3364034967       29.4253948937       10.5745876636
  C        45.4887792841       27.6552982871       13.1388869598
  C        45.4929940500       27.6809306788       14.5605792570
  C        44.8058951123       28.6889812037       15.3071857427
  C        14.8566761901        8.5632015008       15.2642165052
  C        14.8750295269        8.5630717706       12.4515526934
  C        42.9464589364       31.9615672339        5.8089806429
  C        43.6916684146       30.8854335854        5.0954425194
  C        44.6563488246       31.1913439150        4.1232357369
  C        45.2778806667       30.1717499788        3.4055178255
  C        44.9540332447       28.8214370562        3.6430850489
  C        44.0204402674       28.5237675809        4.6537568649
  C        43.3921799735       29.5405426776        5.3659277547
  C        45.5631000178       27.7240454883        2.8578346742
  C        45.5334452876       27.7173646008        1.4365336041
  C        44.8271316517       28.7076018876        0.6835800863
  C        35.1360759433       26.6296905991        0.7350172271
  C        35.1303773030       26.6041040196        3.5448284817
  C        18.1486222069        3.2469812288        5.7065542307
  C        17.4300808441        4.3438597195        4.9972001511
  C        16.4147287881        4.0526235953        4.0737925431
  C        15.7664409265        5.0832810315        3.3984088874
  C        16.1212442659        6.4284831234        3.6210631855
  C        17.1128429028        6.7118331939        4.5780894743
  C        17.7604944988        5.6828911985        5.2578383812
  C        15.4907186316        7.5242006476        2.8486620383
  C        15.4966836535        7.5076406254        1.4275318379
  C        16.1935141800        6.5059765941        0.6808468023
  H        10.6724952687       12.4660605939        3.9043019094
  H        11.6947259382       10.5513053994        2.6623754632
  H        15.3913958223       11.1681159660        4.7727612733
  H        14.3509126178       13.0708307118        6.0180766681
  H        13.3761362765       11.6312168384        1.2013058232
  H        50.3226644527       22.7482878724        3.9868350670
  H        49.3195287387       24.6227336148        2.6807857780
  H        45.6421350339       24.1612300460        4.8638220780
  H        46.6629933841       22.2903387005        6.1721158904
  H        47.6297841364       23.5758022733        1.2461625129
  H        14.8720914056        8.5882380347        4.6085597665
  H        50.2871445919       22.7026451566       12.0602725437
  H        49.2691832968       24.5754941682       13.3603556338
  H        45.6105664289       24.1092527458       11.1460032210
  H        46.6526036551       22.2539630829        9.8317221096
  H        47.6078314807       23.5518025139       14.7968562720
  H        40.6328034070       17.0629883929       11.4108430896
  H        48.6870743776       14.0949431742        7.8000249679
  H        10.6814231137       12.4668885586       12.0935951906
  H        11.6897030810       10.5249853247       13.2973065789
  H        15.3932824603       11.1584718601       11.2050486089
  H        14.3647590394       13.0868840140        9.9897415552
  H        13.3758124013       11.6221904276       14.7531196234
  H        47.9301208987       14.2184511817        9.7107339738
  H        47.7799538813       14.3735755065        6.4953185549
  H        49.0825489469       18.5518950326       10.8670500652
  H        10.4159412315       14.1343679677        7.9987347952
  H        24.4790638982        3.0304116445        3.9126726535
  H        25.6160479750        4.8924076060        2.6863612150
  H        23.2464835487        7.7547785407        4.8519536058
  H        22.1272091118        5.8831859358        6.0792042620
  H        23.7981149134        5.7975282666        1.2673522210
  H        36.3781781177       32.1855292599        3.9654709979
  H        35.2579305405       30.3585919446        2.6845669020
  H        37.5254131476       27.4391196949        4.8839451696
  H        38.6255661488       29.2786532648        6.1736692981
  H        37.0311697060       29.4475355227        1.2692577929
  H        25.7364823177        8.6089972502        4.6526391063
  H        36.4546510674       32.2395926178       12.1107846054
  H        35.3431351940       30.4202635006       13.4045816693
  H        37.5278517892       27.4863519150       11.1401848973
  H        38.6142155383       29.3173332213        9.8339574276
  H        37.0469993612       29.4667131516       14.8209642982
  H        46.1093264984       26.5875645021       11.3855614045
  H        44.6682715932       35.1162139051        7.8139466454
  H        24.4298405752        3.0454389102       12.0943272335
  H        25.5542823617        4.8886478288       13.3459396444
  H        23.1564466207        7.7704491360       11.2384012863
  H        22.0433557417        5.9152488099        9.9870487548
  H        23.7734778078        5.8007179533       14.8185816767
  H        44.9538150115       34.3904624012        9.6952976436
  H        44.9016930767       34.2067158752        6.4907295692
  H        40.6658390901       33.2089039196       10.8530701816
  H        23.1502688232        1.9580310059        8.0054816748
  H        25.7930899221       19.6790110458        3.9405837661
  H        23.6259591453       19.7192495922        2.7073948834
  H        22.3614362186       16.1975791056        4.8275232009
  H        24.5381913160       16.1660393517        6.0536007536
  H        23.7222651590       17.6804540277        1.2512337314
  H        35.1628997466       15.4213122146        4.0126985831
  H        37.2808555850       15.3779930601        2.6954757193
  H        38.6877711674       18.8132441686        4.8685720812
  H        36.5636586338       18.8378796888        6.1890865470
  H        37.2220206601       17.3451962893        1.2435680630
  H        20.3528773724       17.9734967862        4.6700019642
  H        35.1575556844       15.4251498978       12.0764584899
  H        37.2968332868       15.3455361122       13.3611251817
  H        38.7220095584       18.7690126208       11.1814775959
  H        36.5808398200       18.8263585950        9.8908714132
  H        37.2310846830       17.3280839577       14.7925674743
  H        35.1501549860       26.6774248021       11.3934433116
  H        28.5002127049       21.0888739261        7.8925670022
  H        25.7570214614       19.6329653801       12.1570285950
  H        23.5726429374       19.6892697743       13.3735870700
  H        22.3064016639       16.1734701625       11.2450218904
  H        24.4918544921       16.1374889007       10.0265951421
  H        23.7031161470       17.6644871965       14.8014808956
  H        29.0084054709       21.7233216447        9.7414990911
  H        29.1834307076       21.7273729969        6.5639354348
  H        32.0722507209       18.5539668425       10.9392517801
  H        27.4031547675       19.0769295285        8.0834545481
  H        14.8517573718       19.6519623472       12.1359767331
  H        17.0146976706       19.7002377784       13.3777870178
  H        18.3039954923       16.1886495457       11.2552043658
  H        16.1371921472       16.1565222724       10.0126233824
  H        16.9217673594       17.7063192550       14.8451420411
  H        46.0901876625       15.4304445671       12.0563076379
  H        43.9632919748       15.3590564232       13.3584574587
  H        42.5385810504       18.7951279159       11.1980281877
  H        44.6660707791       18.8414275856        9.8851087757
  H        44.0162307296       17.3049515105       14.8192222087
  H        20.2955144458       17.9222505609       11.4220458573
  H        46.0447005627       15.3869984353        4.0317535642
  H        43.9158792942       15.3222346914        2.7336629080
  H        42.5223509108       18.7917536982        4.8598920404
  H        44.6572247856       18.8420022231        6.1599627328
  H        44.0067893383       17.2959722499        1.2684945597
  H        46.1991251945       26.6825558293        4.6233421305
  H        52.7410719167       21.0626070248        8.1946530197
  H        14.8780736951       19.6781350842        3.9023064403
  H        17.0787009162       19.7535493737        2.7213536981
  H        18.3320470032       16.2278467549        4.8414319816
  H        16.1336701253       16.1767303173        6.0323284751
  H        16.9402639515       17.7214985531        1.2925647155
  H        52.3221173969       21.6731988249        6.2944671584
  H        52.0131391325       21.7019903674        9.4956876393
  H        49.0673857176       18.6079131002        5.2041124368
  H        13.2473009394       19.0165153779        7.9773091036
  H        29.9311932552       12.4724270341       12.2602611173
  H        28.8570452532       10.5431627143       13.4318303196
  H        25.2445488978       11.1991596583       11.1926781386
  H        26.3385480613       13.1153510173       10.0138375321
  H        27.1338895786       11.6894096980       14.7965065436
  H        30.9983089487       22.7777537247       12.0097497903
  H        32.0100694335       24.6545176800       13.3094021780
  H        35.7017384660       24.1309065713       11.1657822541
  H        34.6697651480       22.2602459854        9.8622432492
  H        33.6819486091       23.5759583320       14.7567231356
  H        25.6952516571        8.6018148989       11.4075741642
  H        30.9273757755       22.7630586506        3.9900542810
  H        31.9616871706       24.6070324730        2.6647226832
  H        35.6358051038       24.0941278211        4.8410487241
  H        34.5886248531       22.2427875749        6.1574085825
  H        33.6589456008       23.5602786310        1.2080827030
  H        40.5999140055       17.0857848339        4.6518551084
  H        32.5060554023       14.1423607000        8.2518829599
  H        29.8867747153       12.5334326916        3.9061555957
  H        28.8515076459       10.6356851925        2.6532247849
  H        25.2074771653       11.1700686510        4.8741100105
  H        26.2642834043       13.0535877759        6.1340616356
  H        27.1347943222       11.7001380167        1.2465082522
  H        33.3090139415       14.2388421335        6.4663399397
  H        33.4066132207       14.4092999299        9.5973311227
  H        32.1771747630       18.5066996437        5.1924513164
  H        30.1861708141       14.1516101398        8.0753136651
  H        16.1181658519        2.9634518726       12.1295603227
  H        14.9530843773        4.8206270215       13.3223013006
  H        17.3668680260        7.6859730503       11.2105622519
  H        18.5154881304        5.8183151033       10.0107921004
  H        16.7539299979        5.7398648505       14.7715178024
  H        44.8283419380       32.1402779938       11.9769217366
  H        45.9376711551       30.3413983497       13.3063392103
  H        43.6824099683       27.3781884449       11.1526087753
  H        42.5996721568       29.1900586447        9.8100348745
  H        44.2305311245       29.4367269648       14.7688571544
  H        14.8512482920        8.5462423349       11.3633333004
  H        44.8999514530       32.2340249457        3.9318574369
  H        46.0248452342       30.4129809401        2.6523377233
  H        43.7633949353       27.4840458564        4.8452500915
  H        42.6456326542       29.3177463101        6.1243254995
  H        44.2685969610       29.4704710916        1.2181640218
  H        35.0915712916       26.6153749848        4.6324419008
  H        36.6051348775       35.1339808110        8.1806202511
  H        16.1435621863        3.0130534587        3.9041557907
  H        14.9739892886        4.8564843221        2.6884473590
  H        17.3965171600        7.7472778318        4.7548452549
  H        18.5435716071        5.8932810894        5.9824011146
  H        16.7649872552        5.7557826795        1.2193121066
  H        36.2786535629       34.4823627343        6.2732459236
  H        36.3810502843       34.2090792701        9.4997084694
  H        40.5804679162       33.2026077850        5.1535463846
  H        17.4706126435        1.9472896889        7.9741689723
  H        29.1938583979       19.4096974910       12.5098665121
  H        28.8025164756       18.8812400561        3.8124418819
  H        31.6976368376       15.6793628837        3.5244138563
  H        31.2804592835       15.6323045062       12.4768076998
  H        27.7371648230       17.7726212895       14.0414379675
  H        29.2900327527       15.3764969434       14.3760569878
  H        30.9183667091       20.1222411814        2.7610160836
  H        32.6523700670       17.3167129980        1.1911848937
  H        18.8529689640        0.8688922966       12.3351696553
  H        40.5280593081       35.2290027888        3.9520808846
  H        42.3239858669       34.4189197558        3.5903948074
  H        22.0875260208        0.6920562857       12.3515498385
  H        11.5970914322       18.7127254379       12.3823059366
  H        52.2648979937       18.4312990992        3.6774284795
  H        49.2559142305       16.4767425601        3.5842080840
  H        10.1503353919       15.7981863173       12.2927257177
  H        50.8501126016       17.6923042610        3.9542891535
  H        10.0460906817       17.3945325232       12.0519871766
  H        20.2140419441        0.0020362171       12.0420353729
  H        39.1837699194       36.1244768891        3.6864514832
 Ni        30.7343235826       17.7401589733        2.8275861010
 Ni        30.9443691996       16.4491449254       -0.2479979616
 Ni        29.2485514329       17.9173287149        0.0044572715
 Ni        29.9310025148       17.3288243429       13.0740934579
  O        10.6499145701       14.3651259205        5.4858632213
  O        12.6131632973       14.6575495352        6.5839204119
  O        49.1477907003       16.8459737579        7.9897940122
  O        50.3502083798       20.9359072959        5.6481790239
  O        48.3485083029       20.5932588928        6.6659805322
  O        11.0515147344       17.0539021785        6.5007137854
  O        50.3210249622       20.8816461776       10.4067998768
  O        48.3467578154       20.5866964700        9.3271187148
  O        49.5435431493       18.2484440497       10.0682956721
  O        12.3589296111       18.6245733345        7.9997685013
  O        48.6932237454       14.1486174271        6.7512971204
  O         8.2098848829       14.2104209149        9.3225284595
  O        10.7353842823       14.5067733002       10.6643275345
  O        12.5718255262       14.5828776930        9.3285029591
  O        22.8443819596        2.0428281950        5.4873351083
  O        21.6050455393        3.5918606795        6.5901119177
  O        42.0582663612       34.1374402377        7.9790485686
  O        37.9819347577       33.1381771828        5.5726236175
  O        39.2184949047       31.5765126308        6.6670223456
  O        20.3083662144        1.0394975064        6.5020724203
  O        38.0245986481       33.1856270597       10.4151786995
  O        39.2192485391       31.5837846069        9.3263563289
  O        40.6522818310       33.7693139796       10.0602571459
  O        18.2553178732        1.3761572237        7.9967692577
  O        44.6222460577       35.1005166571        6.7587651011
  O        24.2053813137        0.0000347971        9.3208205912
  O        22.7529011576        2.0582543355       10.5840009282
  O        21.6240821906        3.5957652640        9.3420392164
  O        27.4954147111       18.7496071994        5.4913704487
  O        26.7595032955       16.9374225674        6.6538273332
  O        30.6642945275       19.4101246415        8.0446591889
  O        33.5833379459       16.2728932026        5.6660729835
  O        34.2739772702       18.1639559081        6.7341817636
  O        29.5728403359       17.0606766727        6.5782346512
  O        33.5536898301       16.3378339884       10.4126941073
  O        34.3005151462       18.2378987526        9.4056771324
  O        31.6546047902       18.3170249299       10.0937164682
  O        30.2949292158       15.1159920715        8.0828486232
  O        28.5512475095       21.0369802450        6.8381032117
  O        28.5139583325       20.9568437657        9.4045530293
  O        27.4596246442       18.6790100941       10.6589641304
  O        26.6939645539       16.9289825774        9.4123498323
  O        13.1491306674       18.6929589082       10.5875530444
  O        13.9197212631       16.9162755854        9.4052873164
  O        50.5958247112       19.3501619692        8.0206528599
  O        47.6830002702       16.3269792816       10.4171668339
  O        46.9503924187       18.1755642568        9.3255428680
  O        11.0695790240       17.0156352427        9.4896778334
  O        47.6759190607       16.3358365138        5.6529001010
  O        46.9260464032       18.2357733060        6.6637361730
  O        49.5684548444       18.3176697521        5.9823140265
  O        10.3187042159       15.1002304334        7.9971135384
  O        52.6707482302       21.0278771905        9.2418323774
  O        12.1468182836       20.8911913244        6.6732410651
  O        13.1076457341       18.6137836064        5.3257265248
  O        13.9569962649       16.9869435554        6.6654975774
  O        29.9917229780       14.4409232899       10.7315302832
  O        28.0873361791       14.6537136995        9.4969050761
  O        32.0755590135       16.8562037227        8.0670877253
  O        30.9646228815       20.9511757846       10.4079917614
  O        32.9463054056       20.6006547502        9.3362840168
  O        29.5598518081       17.0745353872        9.5700098215
  O        30.8788669221       20.9475449496        5.6599816663
  O        32.8809838291       20.5847102463        6.6675828492
  O        31.6801831106       18.2532179587        5.9868536466
  O        28.2883351475       18.6780370012        8.0701995208
  O        32.4909799271       14.2116400812        9.3276631443
  O        32.4049573108       14.2143781502        6.8229092922
  O        29.9155851096       14.4350384758        5.4906347152
  O        28.0349065617       14.5902937797        6.7502520058
  O        17.8891936636        1.9666342674       10.6628459143
  O        18.9561652526        3.5271697746        9.4080017142
  O        39.1686335511       34.1388587391        7.9972164337
  O        43.2802301828       33.0589706865       10.3317283732
  O        42.0346022680       31.5064047459        9.2416567138
  O        20.3176018384        1.0366617427        9.4802914766
  O        43.2760979372       33.1825471071        5.5748907035
  O        42.0052989232       31.5840694608        6.5829812564
  O        40.5790374655       33.7749662967        5.9358929930
  O        22.3673196196        1.3845834730        7.9979634211
  O        36.6727276150       35.0997595402        9.2332888234
  O        16.4455059680        0.0642805329        6.6683080259
  O        17.9364725347        2.0433982967        5.3263460302
  O        18.9189526914        3.5931456028        6.6659257995
  O        29.7345124171       18.9727590239        4.0860082415
  O        29.8588096721       18.9073723988       12.0002500013
  O        31.2620024092       16.3467903240        4.0841369290
  O        31.2658868135       16.4837099117       11.9949575559
  O        31.8561246514       16.7771044487        1.3381216007
  O        30.1619316773       15.7639204733       14.1763771653
  O        31.5120950689       19.7060468308        2.0951566555
  O        28.6068770807       18.1666435939       14.2352368183
  O        39.4568155724       35.2438164207        4.0019726580
  O        19.1408025386        0.0043246563       11.9906189666
  O        41.9694785184       35.1726526336        4.0871407044
  O        21.6911483536       -0.0693625076       11.8958584500
  O        51.3650510203       18.6143393146        4.0054773173
  O        10.7512190123       18.7471327984       11.9049029783
  O        50.0802493675       16.4128336676        4.0916956928
  O         9.5245071443       16.4830618054       11.9911831001
 Zr         9.2967091745       16.0527382833        6.1823905231
 Zr        49.8361702702       16.0068027322        9.7465593009
 Zr        22.0732951307        0.0298733445        6.1890577125
 Zr        42.4609716549       35.1536178979        9.8010419700
 Zr        29.6086721359       19.0918735029        6.2764861184
 Zr        29.5818697203       19.1809882868        9.8426715402
 Zr        11.0378027925       19.0520467000        9.8277431389
 Zr        11.0434836809       19.1548770839        6.2512439439
 Zr        31.3324437395       16.0957806726        9.8534956159
 Zr        31.3709892651       15.9986223303        6.2703564976
 Zr        18.6011203330       -0.0014553924        9.7632884921
 Zr        18.5065183992       -0.0076349747        6.2137177382
 Zr        12.3018100753       16.3234983909        7.9904374641
 Zr        48.6157677975       18.8329591342        8.0104335775
 Zr        20.3150578666        2.4733010417        7.9905586942
 Zr        40.6435930082       32.6871880379        7.9784041972
 Zr        28.3412089014       16.3331973469        8.0815640718
 Zr        32.6259311144       18.8341136654        8.0497835758
  H        30.9927979761       19.7024008848        1.2664555213
  H        29.5442880550       18.0093740319        1.5473051542
