     566
 i =      152, E =     -4712.2686947705
  C        11.8586554287       14.0535534836        5.7415372997
  C        12.4561393465       12.8906002232        5.0232710006
  C        11.7045349220       12.1717104345        4.0815013347
  C        12.2809462283       11.1094934160        3.3891932161
  C        13.6214888439       10.7396250189        3.6170457063
  C        14.3545556330       11.4431457704        4.5906323552
  C        13.7816375479       12.5081298690        5.2821019160
  C        14.2610861574        9.6489653828        2.8436793006
  C        14.2565093178        9.6569147726        1.4219786932
  C        13.7434000941       10.7590529442        0.6680558190
  C        49.1267606268       21.2332333440        5.8796484682
  C        48.5500282059       22.4011988304        5.1527050642
  C        49.3000956855       23.0685383792        4.1717221181
  C        48.7332095852       24.1077143502        3.4385475669
  C        47.4026727170       24.5094296597        3.6671413177
  C        46.6717125424       23.8605656201        4.6806722099
  C        47.2341015763       22.8156140170        5.4100123832
  C        46.7724676480       25.5871354573        2.8698249077
  C        46.7615461890       25.5575163526        1.4480526708
  C        47.2615641808       24.4424603730        0.7045577024
  C        14.8605409645        8.5706099842        0.7087351409
  C        14.8918350692        8.5970059690        3.5203488098
  C        49.1130797423       21.2033530359       10.1452540576
  C        48.5277254327       22.3647355510       10.8723351087
  C        49.2669230785       23.0253307848       11.8653743960
  C        48.6906446096       24.0599023430       12.5968460076
  C        47.3602783982       24.4568505457       12.3585677482
  C        46.6399354877       23.8121086460       11.3348693160
  C        47.2134385255       22.7761991581       10.6030417480
  C        46.7218538012       25.5318152032       13.1496425569
  C        46.7337077188       25.5282406401       14.5713599106
  C        47.2492590931       24.4291142477       15.3277928932
  C        40.6177374034       17.0355310523       15.3110803378
  C        40.6389855214       17.0870716180       12.5012751316
  C        11.8830533110       14.0865205063       10.2855675930
  C        12.4724167658       12.9107481867       10.9897626353
  C        11.7150333049       12.1775201983       11.9159753009
  C        12.2817305681       11.0951007247       12.5843633896
  C        13.6205622084       10.7214063371       12.3524612661
  C        14.3583782812       11.4369697495       11.3915246525
  C        13.7928450684       12.5180988994       10.7188550805
  C        14.2542755801        9.6247049195       13.1228816362
  C        14.2529104302        9.6446461973       14.5447275651
  C        13.7429727752       10.7535669314       15.2918017166
  C        22.5241097863        3.2496623205        5.7574785623
  C        23.2627849558        4.3558854223        5.0748055720
  C        24.2766061372        4.0737944907        4.1461067040
  C        24.9257102395        5.1103547130        3.4776053234
  C        24.5806277573        6.4566713071        3.7138886400
  C        23.5970155998        6.7304444744        4.6825158964
  C        22.9434325551        5.6953078814        5.3502300733
  C        25.1963373865        7.5595346676        2.9313666775
  C        25.1430263804        7.5515948401        1.5089698477
  C        24.4259939251        6.5528144120        0.7756543256
  C        38.2979548148       31.9283144234        5.8521190009
  C        37.5561885523       30.8401003090        5.1511512607
  C        36.5901833198       31.1476039756        4.1804612517
  C        35.9596650547       30.1301503764        3.4694476370
  C        36.2798813649       28.7787565528        3.7055971926
  C        37.2150111848       28.4786969517        4.7142668555
  C        37.8493852895       29.4950851613        5.4248792028
  C        35.6704454131       27.6904553515        2.9064277854
  C        35.7109711431       27.7046232388        1.4847207147
  C        36.4218077933       28.7066501216        0.7515996538
  C        25.7539885537        8.6199155185        0.7753000867
  C        25.8186490273        8.6313193705        3.5874094252
  C        38.3302335062       31.9606104248       10.1604861813
  C        37.6132703426       30.8878653091       10.9100143634
  C        36.6800074684       31.1977676776       11.9115576819
  C        36.0696788319       30.1812415345       12.6445341358
  C        36.3773404417       28.8273894312       12.4010030511
  C        37.2914704501       28.5274394380       11.3720203620
  C        37.9035140126       29.5404575924       10.6399675963
  C        35.7626693303       27.7289471233       13.1834487831
  C        35.7577409410       27.7245882162       14.6062221494
  C        36.4427995863       28.7172149602       15.3749435786
  C        46.1356626442       26.6208651843       15.2814994353
  C        46.0877829906       26.5801240874       12.4735945215
  C        22.4574518033        3.2571339557       10.2650966042
  C        23.1419695586        4.3646951253       11.0017596869
  C        24.1389964966        4.0766986108       11.9478693019
  C        24.7626628231        5.1041783079       12.6525989666
  C        24.4105885251        6.4516203079       12.4351054659
  C        23.4322170607        6.7325563022       11.4619323136
  C        22.8043769353        5.7053977023       10.7572196498
  C        25.0501166060        7.5501548885       13.2040801858
  C        25.0676992132        7.5463744795       14.6276815330
  C        24.3889914933        6.5507878013       15.3990227435
  C        26.6097122431       17.8510900576        5.7852610294
  C        25.3037221510       17.8982912725        5.0655921042
  C        25.0438569261       18.8958677711        4.1118518425
  C        23.8325494055       18.9139876539        3.4239900714
  C        22.8437144508       17.9392769436        3.6681998236
  C        23.0987617983       16.9657417997        4.6528132792
  C        24.3125403188       16.9409593208        5.3378116601
  C        21.5724265347       17.9251939334        2.9013738016
  C        21.5749965004       17.9076128635        1.4787140020
  C        22.7815537398       17.7836893038        0.7201348974
  C        34.3777630080       17.2057595694        5.8363745640
  C        35.6705377188       17.1043487115        5.1038391827
  C        35.8687479213       16.1291496306        4.1137420057
  C        37.0665648079       16.0838906966        3.4037190209
  C        38.0959232289       17.0118326117        3.6605192300
  C        37.8995750155       17.9624320304        4.6806121402
  C        36.7031149529       18.0125068127        5.3894567845
  C        39.3573858047       17.0129297125        2.8840928548
  C        39.3567090377       17.0343475073        1.4620122032
  C        38.1514162008       17.1613149505        0.7020508686
  C        20.3294493986       17.9290426770        0.7682197503
  C        20.3468598702       17.9271662117        3.5818657061
  C        34.4428010813       17.2385432875       10.1865676967
  C        35.7459726284       17.1319549368       10.9038417888
  C        35.9510744853       16.1434473095       11.8783098502
  C        37.1427639657       16.1033374675       12.5978415697
  C        38.1580822007       17.0523508140       12.3666803138
  C        37.9590837236       18.0141726838       11.3581253869
  C        36.7676067727       18.0579191574       10.6397881871
  C        39.4059951058       17.0610523414       13.1633026970
  C        39.3815242290       17.0595744109       14.5849986755
  C        38.1629712642       17.1714701260       15.3256506300
  C        35.1211414360       26.6460062945       15.3067498549
  C        35.1787091795       26.6563737098       12.4968665795
  C        26.5723121595       17.8284707399       10.3250283377
  C        25.2597597647       17.8698954792       11.0346905163
  C        25.0003965370       18.8700204904       11.9843097022
  C        23.7827040331       18.8961352208       12.6584393945
  C        22.7953605796       17.9224064105       12.4067935653
  C        23.0501528854       16.9466556333       11.4260679334
  C        24.2684719834       16.9180838592       10.7502076278
  C        21.5309371981       17.9053669015       13.1783329114
  C        21.5533691766       17.8953761153       14.5999743674
  C        22.7705332536       17.7773380545       15.3436346755
  C        14.0472654626       17.8294018775       10.2886214408
  C        15.3524001790       17.8876798404       11.0130358025
  C        15.6095737303       18.8918969829       11.9595330349
  C        16.8188957985       18.9136755331       12.6519875554
  C        17.8057278034       17.9340159024       12.4204631148
  C        17.5534673935       16.9542808768       11.4414763044
  C        16.3436375192       16.9279744657       10.7505061031
  C        19.0744616809       17.9165125590       13.1905999104
  C        19.0717651532       17.9133530597       14.6132094732
  C        17.8637076040       17.8166161675       15.3729887064
  C        46.8038342560       17.2167273645       10.1582900835
  C        45.5129328945       17.1462577194       10.9031267399
  C        45.3110675055       16.1585497442       11.8798321061
  C        44.1287464458       16.1262287122       12.6144789419
  C        43.1172192890       17.0816289744       12.3952664517
  C        43.3169181342       18.0502899021       11.3928313373
  C        44.5000938785       18.0861677902       10.6585229921
  C        41.8622241421       17.0754491155       13.1821666410
  C        41.8656106997       17.0625167978       14.6046298392
  C        43.0720382708       17.1604807732       15.3672467182
  C        20.3177757631       17.9219254105       15.3231446882
  C        20.2996112507       17.8958006482       12.5100737171
  C        46.7804186286       17.2285218541        5.8881327517
  C        45.4748264307       17.1089525978        5.1732475876
  C        45.2641152051       16.1009625445        4.2192411500
  C        44.0748763610       16.0534290761        3.4948905671
  C        43.0623602392       17.0100216558        3.7055864028
  C        43.2639248787       17.9886555971        4.6975526696
  C        44.4549802420       18.0427015265        5.4171677590
  C        41.8141732568       17.0106615833        2.9061363532
  C        41.8411165191       17.0277659675        1.4839307023
  C        43.0604495056       17.1424066012        0.7443412945
  C        46.1534712422       26.6373442228        0.7262683075
  C        46.1624399620       26.6562466611        3.5359218856
  C        14.0444431050       17.8308987728        5.7084560264
  C        15.3642992639       17.9032588345        5.0166939276
  C        15.6392852798       18.9205589448        4.0907534100
  C        16.8680103760       18.9566129853        3.4356172639
  C        17.8484349218       17.9742585487        3.6807241722
  C        17.5800185043       16.9852897654        4.6443600140
  C        16.3535487329       16.9489398094        5.3033049098
  C        19.1158252073       17.9489630369        2.9128676096
  C        19.0934551873       17.9290704300        1.4914046707
  C        17.8742723223       17.8236973584        0.7492407501
  C        28.8031127358       14.0874004549       10.3940948919
  C        28.1900355067       12.9110665814       11.0760738460
  C        28.9128705878       12.1662478914       12.0200570969
  C        28.3122039717       11.0919971428       12.6714613430
  C        26.9733454671       10.7381358196       12.4063586713
  C        26.2727107834       11.4620818470       11.4245880919
  C        26.8715357046       12.5360741210       10.7700063496
  C        26.3055285761        9.6626402359       13.1766220432
  C        26.3130077677        9.6924343035       14.5980947692
  C        26.8222199852       10.8096721302       15.3328444754
  C        32.1808595600       21.2412247010       10.1477917641
  C        32.7772358088       22.4032897091       10.8681339608
  C        32.0280762716       23.0795921461       11.8438148221
  C        32.5972797721       24.1193571890       12.5725098191
  C        33.9314961318       24.5116061389       12.3485577908
  C        34.6629153901       23.8536415557       11.3413266510
  C        34.0964381622       22.8084641546       10.6137469033
  C        34.5574127172       25.5871208183       13.1523511730
  C        34.5373657542       25.5604217830       14.5745846464
  C        34.0256265333       24.4451267284       15.3103136692
  C        25.7183683771        8.6146126359       15.3297960777
  C        25.6571386553        8.6107101933       12.5160941472
  C        32.0814397625       21.1991165234        5.8736464523
  C        32.6484862196       22.3668959795        5.1414223802
  C        31.9224846550       22.9959741628        4.1178474653
  C        32.4941255007       24.0368385115        3.3885197741
  C        33.8057465073       24.4762963814        3.6590075066
  C        34.5109397413       23.8606321624        4.7119228188
  C        33.9449127791       22.8174862129        5.4388111849
  C        34.4478312832       25.5585981654        2.8761402967
  C        34.4804612486       25.5458841401        1.4533056797
  C        33.9976264678       24.4384771681        0.6871197233
  C        40.6052355207       17.0200073119        0.7564401886
  C        40.5801554881       17.0180886202        3.5673000647
  C        28.8346031816       14.1417325387        5.7602817164
  C        28.2455830676       12.9867410806        5.0170221226
  C        28.9633166021       12.3061485375        4.0208972656
  C        28.3870834712       11.2255579452        3.3523590637
  C        27.0756928651       10.7967491701        3.6486386532
  C        26.3774099392       11.4682763094        4.6704372655
  C        26.9509766700       12.5452321136        5.3419100176
  C        26.4224497458        9.6938530897        2.8970414464
  C        26.3744297675        9.7076269509        1.4749968871
  C        26.8488002363       10.8184349655        0.7083845718
  C        18.1357508831        3.1809261140       10.3169781356
  C        17.4066023516        4.2782942865       11.0156892381
  C        16.3907501879        3.9999963801       11.9430757834
  C        15.7431105632        5.0399991176       12.6066448696
  C        16.0952154800        6.3837032196       12.3671542149
  C        17.0847497417        6.6531726256       11.4035218367
  C        17.7337505053        5.6158023861       10.7383946519
  C        15.4708516173        7.4914159225       13.1302103789
  C        15.4859691257        7.4906783041       14.5519390222
  C        16.1873964796        6.4970017561       15.3051531864
  C        42.9457725460       31.8595489408       10.0728301618
  C        43.6461177318       30.7718475691       10.8168153139
  C        44.5917716617       31.0931461206       11.8027733311
  C        45.1974795710       30.0875903109       12.5504321703
  C        44.8709278608       28.7345393802       12.3356808288
  C        43.9449481795       28.4202192844       11.3226028386
  C        43.3361343151       29.4253736759       10.5745626016
  C        45.4885732515       27.6552479469       13.1388686244
  C        45.4928437890       27.6809247393       14.5605693159
  C        44.8057492317       28.6889772523       15.3071792224
  C        14.8569155462        8.5631378257       15.2642916796
  C        14.8755854640        8.5631991781       12.4516100567
  C        42.9464312996       31.9618466105        5.8089752118
  C        43.6916640664       30.8857016575        5.0954189947
  C        44.6564895156       31.1915618360        4.1233323333
  C        45.2780187966       30.1719591602        3.4056108470
  C        44.9540369418       28.8216565693        3.6430608088
  C        44.0202528364       28.5240233210        4.6535643712
  C        43.3919854688       29.5408108064        5.3657225651
  C        45.5631338466       27.7242260286        2.8578447469
  C        45.5334484077       27.7174885469        1.4365415850
  C        44.8270762195       28.7076680517        0.6835721115
  C        35.0945105358       26.6372944244        0.7524374707
  C        35.0553075255       26.6183375571        3.5626270865
  C        18.1489348077        3.2469769567        5.7067022719
  C        17.4301770628        4.3438882245        4.9976374370
  C        16.4148944360        4.0525690159        4.0741429829
  C        15.7665649974        5.0831562322        3.3986950675
  C        16.1212262010        6.4284094461        3.6213328248
  C        17.1125945404        6.7118377813        4.5785899120
  C        17.7603173864        5.6829689100        5.2584030490
  C        15.4907390523        7.5240846478        2.8488014519
  C        15.4967146466        7.5074911428        1.4276545355
  C        16.1934788445        6.5057757572        0.6809731242
  H        10.6724221704       12.4658379468        3.9043912186
  H        11.6947045733       10.5510240213        2.6626067765
  H        15.3915591750       11.1685161791        4.7724712448
  H        14.3510667172       13.0712849296        6.0176174770
  H        13.3763539254       11.6311701786        1.2013525286
  H        50.3227993061       22.7485021580        3.9869573396
  H        49.3197466942       24.6229790208        2.6810091739
  H        45.6422415334       24.1613948773        4.8638721966
  H        46.6630205365       22.2904116247        6.1720817472
  H        47.6301960143       23.5761199084        1.2462342471
  H        14.8721207568        8.5882329013        4.6086536869
  H        50.2869321330       22.7024088672       12.0603497984
  H        49.2690711482       24.5752667474       13.3603851013
  H        45.6106039480       24.1095240868       11.1456762074
  H        46.6526221930       22.2542667462        9.8313176717
  H        47.6081111004       23.5519961441       14.7969457639
  H        40.6479134765       17.0646932781       11.4131901504
  H        48.6871779025       14.0950194070        7.8000198448
  H        10.6815432680       12.4664872478       12.0934364798
  H        11.6900069141       10.5246601389       13.2970808606
  H        15.3938118869       11.1591482080       11.2055018419
  H        14.3651360902       13.0874713541        9.9902910443
  H        13.3762048408       11.6222087318       14.7531684313
  H        47.9302060557       14.2183639070        9.7106768088
  H        47.7800355195       14.3742292616        6.4954281182
  H        49.0831722547       18.5523304558       10.8669768901
  H        10.4159910913       14.1344125429        7.9986591626
  H        24.5338552370        3.0342242531        3.9550247719
  H        25.7077486428        4.8847256247        2.7556507896
  H        23.3192218510        7.7644990441        4.8763404225
  H        22.1626378870        5.9040780849        6.0778041278
  H        23.8754940395        5.7958366023        1.3265812538
  H        36.3583868364       32.1918495192        3.9846710656
  H        35.2115418543       30.3735960583        2.7181806376
  H        37.4702066965       27.4383337755        4.9051084224
  H        38.5968612794       29.2696210635        6.1818965888
  H        36.9818240234       29.4576719688        1.3010533140
  H        25.8747298791        8.6148978892        4.6745383168
  H        36.4519615991       32.2421283510       12.1125022022
  H        35.3394409337       30.4293022149       13.4116731535
  H        37.5432963560       27.4871395358       11.1766971715
  H        38.6297201138       29.3115842855        9.8637484882
  H        37.0198230395       29.4759462012       14.8540620333
  H        46.1090925672       26.5874960826       11.3855560208
  H        44.6681618698       35.1161103257        7.8138559037
  H        24.4186557759        3.0383309671       12.1111049090
  H        25.5420352368        4.8712007118       13.3750136734
  H        23.1459511534        7.7673053476       11.2846979469
  H        22.0356923571        5.9222788332       10.0189599045
  H        23.8089828258        5.7931294563       14.8798746759
  H        44.9535644529       34.3904944432        9.6952617708
  H        44.9005846197       34.2064789913        6.4905583619
  H        40.6659680369       33.2093481784       10.8531164307
  H        23.1513067917        1.9580205502        8.0077499049
  H        25.8009091367       19.6538425134        3.9240197278
  H        23.6370987992       19.6928692986        2.6900460898
  H        22.3468742645       16.2044788712        4.8506079020
  H        24.5199212626       16.1746552252        6.0810615242
  H        23.7221968310       17.6616687138        1.2495083757
  H        35.0703523426       15.4204066770        3.9053934206
  H        37.2177287632       15.3217428702        2.6424042685
  H        38.6845288073       18.6875637259        4.8850576349
  H        36.5374067926       18.7627276191        6.1587966885
  H        37.2105461514       17.2850002713        1.2302525692
  H        20.3517575427       17.9644255434        4.6698229817
  H        35.1582158454       15.4249701189       12.0729766032
  H        37.2981343513       15.3335348436       13.3505397601
  H        38.7349397611       18.7542515530       11.1732707021
  H        36.5952311286       18.8200908718        9.8837435260
  H        37.2311982615       17.3019208218       14.7828793979
  H        35.1605774405       26.6809806706       11.4089132110
  H        28.5097912424       21.0798666777        7.8797323742
  H        25.7648336269       19.6202348974       12.1745600790
  H        23.5811169684       19.6764518404       13.3891509565
  H        22.2963505324       16.1877859975       11.2263780468
  H        24.4805288636       16.1533197010       10.0068813352
  H        23.7028022951       17.6505482729       14.8015111127
  H        28.9855524259       21.7290986337        9.7553273876
  H        29.1666396493       21.7320491435        6.5493516262
  H        32.0519216609       18.5817925129       11.0036733842
  H        27.4124122038       19.0774292829        8.0847954484
  H        14.8511627622       19.6510364374       12.1374938443
  H        17.0140517700       19.6987742745       13.3793687829
  H        18.3046037320       16.1898431525       11.2533133688
  H        16.1378001124       16.1580040609       10.0107244728
  H        16.9215226488       17.7037030510       14.8445919742
  H        46.0979458424       15.4290222203       12.0562472511
  H        43.9737920865       15.3517626608       13.3624923068
  H        42.5448381790       18.7970525195       11.2193155876
  H        44.6690840551       18.8480207527        9.9010074179
  H        44.0142425625       17.2833972302       14.8407344612
  H        20.2950377762       17.9261191664       11.4219351376
  H        46.0487045078       15.3679073295        4.0460744361
  H        43.9184413356       15.2702221530        2.7562180028
  H        42.4896245474       18.7336478806        4.8688873802
  H        44.6276382565       18.8180932538        6.1597445875
  H        43.9937528603       17.2505466450        1.2893622662
  H        46.1991994085       26.6828100974        4.6233695148
  H        52.7412362410       21.0627619014        8.1947134908
  H        14.8804932775       19.6766885316        3.9016547234
  H        17.0813376293       19.7485382807        2.7208801476
  H        18.3287348232       16.2205330456        4.8404601578
  H        16.1304185970       16.1730861354        6.0316005085
  H        16.9399821755       17.7162505182        1.2920366996
  H        52.3229112711       21.6734640149        6.2941627858
  H        52.0137313011       21.7025015283        9.4957863059
  H        49.0668245386       18.6072316188        5.2041442952
  H        13.2473521028       19.0164021555        7.9772946833
  H        29.9425098449       12.4452470829       12.2320457919
  H        28.8749989328       10.5154562700       13.4023900413
  H        25.2383982138       11.2003050733       11.2109296222
  H        26.3259504528       13.1164901455       10.0300361956
  H        27.1660287869       11.6819863099       14.7852757913
  H        31.0040607861       22.7639126039       12.0281035028
  H        32.0105322702       24.6412955255       13.3252146290
  H        35.6955966728       24.1458205087       11.1620287591
  H        34.6686241606       22.2764300904        9.8572430170
  H        33.6789827248       23.5727026898       14.7637637068
  H        25.6714707326        8.5875414376       11.4278273150
  H        30.9177307243       22.6440669290        3.8939479198
  H        31.9231470601       24.5235799926        2.6009135754
  H        35.5260408397       24.1865973633        4.9288865819
  H        34.4991535176       22.3212174855        6.2318367542
  H        33.6299742153       23.5602517437        1.2102244257
  H        40.5708916913       16.9795329202        4.6550146392
  H        32.5221617517       14.1295056154        8.3608205414
  H        29.9744715887       12.6321363092        3.7865826780
  H        28.9563980877       10.6962948631        2.5912672314
  H        25.3625605008       11.1572602487        4.9097754454
  H        26.4035143706       13.0722592581        6.1192878626
  H        27.2107245568       11.6988229318        1.2311674728
  H        33.2855678743       14.1456752508        6.4293304998
  H        33.4041740749       14.4399214260        9.6742636201
  H        32.1323875655       18.4710443262        5.0522533241
  H        30.2274295165       14.1893238771        8.1342540671
  H        16.1184904618        2.9635154000       12.1293238475
  H        14.9535248110        4.8206138004       13.3221574346
  H        17.3673337567        7.6860283928       11.2105221101
  H        18.5158402288        5.8184169862       10.0105894534
  H        16.7539364948        5.7396269635       14.7716790264
  H        44.8281480991       32.1402177199       11.9768883811
  H        45.9374443511       30.3413344810       13.3062833117
  H        43.6821004653       27.3781720744       11.1525893367
  H        42.5994116317       29.1900459531        9.8099942098
  H        44.2303214512       29.4366849770       14.7688673127
  H        14.8519116459        8.5464449724       11.3633861622
  H        44.9002093566       32.2342232143        3.9320051367
  H        46.0250853986       30.4131732237        2.6525269550
  H        43.7630155360       27.4843255399        4.8449321141
  H        42.6452224272       29.3180142935        6.1239076549
  H        44.2685371060       29.4705346593        1.2181551522
  H        35.0041315621       26.6333025926        4.6497142316
  H        36.6051861036       35.1340524627        8.1808737495
  H        16.1437679677        3.0129889945        3.9044964549
  H        14.9742046156        4.8562381776        2.6886689317
  H        17.3961006603        7.7473115935        4.7554410385
  H        18.5432311335        5.8934715701        5.9831120454
  H        16.7647911175        5.7554632042        1.2194411268
  H        36.2788524950       34.4823515957        6.2732787548
  H        36.3813189222       34.2089563203        9.4997505026
  H        40.5791716373       33.2025128621        5.1539596469
  H        17.4718265591        1.9471499119        7.9742090606
  H        29.0684608440       19.3382932490       12.4966426439
  H        28.7047315959       18.8163551646        3.7590945906
  H        31.1788012346       15.5940787052       12.5944616156
  H        27.7676186876       17.8247587647       14.1012489812
  H        29.2698817957       15.5404399218       14.5853296075
  H        32.5703359697       17.4059131628        1.4304876567
  H        18.8532505066        0.8686264572       12.3355948040
  H        40.5275857511       35.2291113613        3.9519201406
  H        42.3248398266       34.4193673073        3.5906607799
  H        22.0879299224        0.6922215184       12.3510212407
  H        11.5970167992       18.7127079735       12.3823190457
  H        52.2651296067       18.4313238065        3.6775431344
  H        49.2552451034       16.4770176584        3.5842293044
  H        10.1497704779       15.7983297505       12.2930320738
  H        50.8503095823       17.6926217181        3.9541577206
  H        10.0458297518       17.3946122075       12.0519360032
  H        20.2147847682        0.0022632767       12.0420388908
  H        39.1835229308       36.1243844635        3.6862425527
 Ni        30.5188092952       17.9678787319        2.4988814415
 Ni        30.9021324407       16.4791287617        0.0818092736
 Ni        29.3395406393       18.2601428690        0.0032203298
 Ni        29.9698124490       17.4043149434       13.2375110937
  O        10.6498284784       14.3652027296        5.4858358524
  O        12.6131150477       14.6575158585        6.5839024151
  O        49.1476180564       16.8460350361        7.9896166252
  O        50.3502043728       20.9358816089        5.6481386414
  O        48.3485013656       20.5931727940        6.6659090404
  O        11.0515349712       17.0538972372        6.5007140799
  O        50.3208789829       20.8815812287       10.4067954198
  O        48.3466878448       20.5865550635        9.3269813483
  O        49.5435802050       18.2484502156       10.0680548994
  O        12.3588690856       18.6246786724        7.9997735086
  O        48.6932014805       14.1486865919        6.7512679053
  O         8.2099457306       14.2103917829        9.3224770836
  O        10.7353915567       14.5067722716       10.6643309818
  O        12.5718121374       14.5828384879        9.3285068696
  O        22.8465182280        2.0464890932        5.4860862251
  O        21.6094447599        3.5954371349        6.5865736923
  O        42.0580404545       34.1375114624        7.9786229999
  O        37.9812893439       33.1371064419        5.5725557645
  O        39.2174378597       31.5754922726        6.6658243952
  O        20.3086831029        1.0401504799        6.5023268879
  O        38.0244043829       33.1849881106       10.4156842578
  O        39.2183622099       31.5829824140        9.3275181177
  O        40.6522582766       33.7693836020       10.0600281445
  O        18.2564448174        1.3758636160        7.9967690934
  O        44.6221753523       35.1006071788        6.7586685274
  O        24.2052899038        0.0001376710        9.3207351463
  O        22.7532303377        2.0582310140       10.5848701883
  O        21.6256070296        3.5977674104        9.3459579251
  O        27.4868084109       18.7450726137        5.4934128985
  O        26.7654336087       16.9283581323        6.6552705205
  O        30.6928028784       19.3426907931        8.0044767856
  O        33.4666361355       16.3330660742        5.5732229762
  O        34.2607894119       18.1675297345        6.6673671003
  O        29.5803077423       17.0514498790        6.5868254395
  O        33.5550690494       16.3428203919       10.4193732244
  O        34.3012022387       18.2396234274        9.4042045064
  O        31.6498645633       18.3174344354       10.1581288964
  O        30.3320048359       15.1551730042        8.1519842590
  O        28.5527448178       21.0298012640        6.8309740222
  O        28.5164841678       20.9535941656        9.4038705879
  O        27.4568188076       18.6805154800       10.6554696593
  O        26.6945280444       16.9288718153        9.4117236332
  O        13.1489139653       18.6929755678       10.5874988505
  O        13.9196247339       16.9163449360        9.4052707324
  O        50.5956335214       19.3500764993        8.0204178592
  O        47.6837767123       16.3267834361       10.4170141768
  O        46.9501497365       18.1754316353        9.3257355114
  O        11.0696462257       17.0156576398        9.4896364167
  O        47.6746284264       16.3359273994        5.6529566639
  O        46.9219409898       18.2353758775        6.6613020846
  O        49.5684476971       18.3177288258        5.9822733169
  O        10.3186629287       15.1002676992        7.9971049058
  O        52.6707185157       21.0278551379        9.2418169467
  O        12.1468083811       20.8911753676        6.6732618235
  O        13.1077203684       18.6137201803        5.3257567736
  O        13.9567427878       16.9868359358        6.6656685862
  O        29.9879054298       14.4384503404       10.7370306010
  O        28.0880374847       14.6535525263        9.4955636839
  O        32.1424635889       16.8571493216        8.0950004995
  O        30.9666087097       20.9511770034       10.4050474160
  O        32.9475010959       20.6012618077        9.3366099548
  O        29.5663213061       17.0778927865        9.5768714073
  O        30.8593469176       20.8816359378        5.6530485817
  O        32.8739781431       20.5758604168        6.6611509217
  O        31.6325459462       18.1785148061        5.8331320669
  O        28.2972195892       18.6772575207        8.0666338514
  O        32.4935374466       14.2123171206        9.4067844729
  O        32.4067751820       14.2107624346        6.8372953122
  O        29.9908518590       14.5844977684        5.4132332081
  O        28.1354453492       14.5886942147        6.7384274648
  O        17.8893545713        1.9666578531       10.6627112217
  O        18.9565276070        3.5270906715        9.4077420058
  O        39.1685938874       34.1386413049        7.9971481747
  O        43.2801708578       33.0589762126       10.3316508624
  O        42.0344142348       31.5065029974        9.2415735934
  O        20.3180467374        1.0373839172        9.4796355856
  O        43.2761117869       33.1828443988        5.5749470301
  O        42.0052611074       31.5842046972        6.5829448737
  O        40.5792873490       33.7755696936        5.9358276625
  O        22.3677270790        1.3854188736        7.9976728833
  O        36.6729162680       35.0997234294        9.2334209619
  O        16.4457461770        0.0643228128        6.6682464480
  O        17.9365424082        2.0434670527        5.3265007283
  O        18.9196303339        3.5931325948        6.6659669604
  O        29.6490328323       18.8268991273        4.0038954642
  O        29.7879657705       18.8983231593       12.0005905996
  O        31.2159163117       16.4285055251       12.0853858468
  O        31.8043301610       16.8484504634        1.6626205009
  O        30.1642632716       15.8909625911       14.4173404472
  O        28.5989873098       18.3118128021       14.2416186636
  O        39.4567295904       35.2438397798        4.0019639125
  O        19.1414483381        0.0044309712       11.9904452324
  O        41.9697665833       35.1729105903        4.0872999087
  O        21.6912782239       -0.0692880779       11.8957234844
  O        51.3651962314       18.6143651657        4.0054336704
  O        10.7511402707       18.7471548182       11.9049071544
  O        50.0795202272       16.4127875036        4.0917437382
  O         9.5240339025       16.4831731205       11.9911925300
 Zr         9.2969785521       16.0529554908        6.1822805195
 Zr        49.8367463059       16.0067738438        9.7464395328
 Zr        22.0732923490        0.0309588211        6.1884794868
 Zr        42.4607505296       35.1535313078        9.8006343760
 Zr        29.5961024555       19.0684344035        6.1976668573
 Zr        29.5792778880       19.1838273747        9.8576525832
 Zr        11.0380186837       19.0521334189        9.8277974786
 Zr        11.0438746388       19.1549726447        6.2511201486
 Zr        31.3178647360       16.1165075061        9.9598343735
 Zr        31.4183457083       16.0211877640        6.4152416774
 Zr        18.6012808068       -0.0015438384        9.7633147897
 Zr        18.5065281561       -0.0078468188        6.2138066900
 Zr        12.3023208049       16.3235438178        7.9905080968
 Zr        48.6157321414       18.8329442819        8.0096263178
 Zr        20.3170674222        2.4747843582        7.9899584539
 Zr        40.6429916813       32.6867308532        7.9779910572
 Zr        28.3421946211       16.3483393635        8.0907865424
 Zr        32.6344121007       18.8627512917        8.0524202479
  H        29.8474577872       18.8643999292        1.3601705363
  H        30.8031207093       17.9656194224       15.4962668150
