     573
 i =      148, E =     -4762.8366081247
  C        11.8586903427       14.0534518949        5.7416531226
  C        12.4562086282       12.8905169394        5.0233211651
  C        11.7045718681       12.1717248342        4.0815204112
  C        12.2809321121       11.1094948964        3.3891927355
  C        13.6214822248       10.7396650140        3.6169967088
  C        14.3545506097       11.4430115577        4.5907033715
  C        13.7816667835       12.5079984051        5.2821899510
  C        14.2610220397        9.6490042609        2.8436227986
  C        14.2564621031        9.6569929431        1.4219246842
  C        13.7431933413       10.7590679917        0.6680135178
  C        49.1267157086       21.2332020531        5.8796642317
  C        48.5500340162       22.4012010189        5.1526840361
  C        49.3000786115       23.0684561966        4.1716518728
  C        48.7331596161       24.1075666049        3.4384110216
  C        47.4026767089       24.5093604099        3.6671164266
  C        46.6716971469       23.8604739133        4.6806002531
  C        47.2341174521       22.8155936425        5.4100060428
  C        46.7724501131       25.5870219226        2.8697915528
  C        46.7614710559       25.5573991754        1.4480267586
  C        47.2614345969       24.4423124040        0.7045383974
  C        14.8605527501        8.5707381931        0.7086612582
  C        14.8918774011        8.5970976422        3.5202641023
  C        49.1132301895       21.2034938487       10.1453405258
  C        48.5278257503       22.3647497311       10.8725871041
  C        49.2671401471       23.0256090835       11.8653436815
  C        48.6907806397       24.0601131423       12.5968471447
  C        47.3603493036       24.4568633648       12.3586557553
  C        46.6398978327       23.8118649968       11.3352203715
  C        47.2134653278       22.7760098402       10.6033796672
  C        46.7219391169       25.5318494187       13.1496853456
  C        46.7336643620       25.5281894721       14.5713894310
  C        47.2491757302       24.4290136946       15.3277754753
  C        40.6315383591       17.1003586175       15.3214623605
  C        40.6483622740       17.1426884886       12.5124232949
  C        11.8830322296       14.0866508553       10.2856441288
  C        12.4723198708       12.9106869392       10.9896611742
  C        11.7148885867       12.1775925160       11.9159150123
  C        12.2814608403       11.0950603273       12.5842241754
  C        13.6203276498       10.7214447309       12.3525042385
  C        14.3582111240       11.4369031635       11.3915525776
  C        13.7928031484       12.5181396297       10.7189584797
  C        14.2539335861        9.6246600196       13.1228531158
  C        14.2527303938        9.6446896331       14.5446887026
  C        13.7426685377       10.7535550829       15.2917604403
  C        22.5115242582        3.2440570459        5.7531816387
  C        23.2257373578        4.3492623627        5.0534887978
  C        24.2206543629        4.0690362304        4.1052572565
  C        24.8472530773        5.1086210722        3.4229802513
  C        24.4943015836        6.4502895450        3.6689798887
  C        23.5276695243        6.7220447329        4.6542176005
  C        22.8963520305        5.6842890657        5.3347662103
  C        25.0985837843        7.5572910594        2.8932164554
  C        25.0655712915        7.5529396812        1.4718646437
  C        24.3614600794        6.5546574972        0.7262932042
  C        38.3034447354       31.9306771799        5.8490913402
  C        37.5758006678       30.8413489103        5.1384262091
  C        36.6145472746       31.1447973987        4.1623559705
  C        35.9991029202       30.1241317617        3.4433629234
  C        36.3306531982       28.7757097074        3.6795535016
  C        37.2628866670       28.4796240138        4.6916055906
  C        37.8821191834       29.4989624231        5.4095956037
  C        35.7286485192       27.6836769835        2.8834292043
  C        35.7558024995       27.6990069169        1.4622076041
  C        36.4581994844       28.7028167306        0.7235148683
  C        25.6857274457        8.6244161946        0.7520153034
  C        25.7000420001        8.6294976208        3.5638146136
  C        38.3280163847       31.9615330378       10.1557965130
  C        37.6054127561       30.8873441965       10.8959092319
  C        36.6740462063       31.1943481946       11.8996865136
  C        36.0644987393       30.1747371685       12.6283225294
  C        36.3725132118       28.8225072594       12.3776478973
  C        37.2805021965       28.5253784383       11.3428491538
  C        37.8919819452       29.5414401927       10.6152695027
  C        35.7669047281       27.7226972648       13.1631319785
  C        35.7757815950       27.7187737171       14.5851881243
  C        36.4671974892       28.7125176744       15.3468001412
  C        46.1356527408       26.6208209171       15.2815239796
  C        46.0878620890       26.5801325421       12.4736228568
  C        22.4599624681        3.2559815532       10.2577930154
  C        23.1517427359        4.3656786098       10.9811435945
  C        24.1526821995        4.0816392953       11.9237097552
  C        24.7778563709        5.1132630317       12.6199755670
  C        24.4225030482        6.4584614711       12.3958068485
  C        23.4447668341        6.7357399686       11.4216632106
  C        22.8147836218        5.7043895903       10.7260924160
  C        25.0505976453        7.5579084620       13.1701722939
  C        25.0414977595        7.5525329229       14.5929607094
  C        24.3483461242        6.5553922313       15.3494112387
  C        26.6139087607       17.8563155002        5.7828672036
  C        25.3069983261       17.9020017810        5.0595757407
  C        25.0416170347       18.9031666358        4.1116936755
  C        23.8292836647       18.9196732802        3.4247691757
  C        22.8449876166       17.9395645865        3.6651848774
  C        23.1058814894       16.9614614163        4.6434570656
  C        24.3206205912       16.9386099250        5.3270988067
  C        21.5725825524       17.9237189156        2.8998770023
  C        21.5748729458       17.9034506318        1.4775327567
  C        22.7816326943       17.7808013472        0.7189846288
  C        34.4383073899       17.1890044643        5.9154908542
  C        35.7317475764       17.1326542479        5.1752524066
  C        35.9406997605       16.1566641666        4.1881962725
  C        37.1209495812       16.1427848097        3.4508112278
  C        38.1256768736       17.1018202184        3.6828910294
  C        37.9211086642       18.0570561079        4.6966685086
  C        36.7374078527       18.0773569932        5.4302938790
  C        39.3794608674       17.1082495757        2.8961233646
  C        39.3743856279       17.1183197920        1.4744895997
  C        38.1667346791       17.2388442751        0.7174076327
  C        20.3293493577       17.9216824738        0.7672321232
  C        20.3474081806       17.9259893603        3.5808908019
  C        34.4688022012       17.2422608795       10.1823387818
  C        35.7686030534       17.1660548676       10.9103889252
  C        35.9848164842       16.1729303619       11.8772613622
  C        37.1714906644       16.1485098434       12.6044367129
  C        38.1700642834       17.1164266664       12.3834189960
  C        37.9598829122       18.0859998964       11.3855396413
  C        36.7711987159       18.1151722641       10.6612847648
  C        39.4178941411       17.1272630563       13.1777108871
  C        39.3943781225       17.1285620842       14.5986870455
  C        38.1763408904       17.2420184672       15.3405379810
  C        35.1470429131       26.6395994391       15.2909658433
  C        35.1800553843       26.6488457884       12.4821521754
  C        26.5757867398       17.8262343479       10.3257112979
  C        25.2625477359       17.8647810131       11.0375051028
  C        24.9978440678       18.8686019709       11.9813829516
  C        23.7793895951       18.8932447507       12.6545413675
  C        22.7962656384       17.9143296040       12.4069224708
  C        23.0565177098       16.9339001355       11.4324827084
  C        24.2757294242       16.9070445925       10.7579280425
  C        21.5310878867       17.8965935150       13.1775282949
  C        21.5532074994       17.8872610663       14.5989875950
  C        22.7707373796       17.7722331693       15.3425784345
  C        14.0469761297       17.8286278299       10.2888551073
  C        15.3523463957       17.8853843875       11.0132454185
  C        15.6105491791       18.8879104219       11.9611453526
  C        16.8200345028       18.9073895582       12.6534456473
  C        17.8058686633       17.9271807856       12.4200868954
  C        17.5525365939       16.9490479315       11.4398600747
  C        16.3424979592       16.9249775575       10.7492570977
  C        19.0746722005       17.9077007348       13.1899207033
  C        19.0718176081       17.9036717955       14.6124610422
  C        17.8638512740       17.8057985663       15.3723863805
  C        46.8051970646       17.2179220257       10.1587594515
  C        45.5156649943       17.1535426646       10.9042707244
  C        45.3111426695       16.1723843320       11.8867783981
  C        44.1303255942       16.1514258789       12.6240064444
  C        43.1246064613       17.1120997118       12.4012125221
  C        43.3263184131       18.0727766105       11.3917333425
  C        44.5076391883       18.0973848302       10.6550668349
  C        41.8724714846       17.1208211868       13.1909311721
  C        41.8783659041       17.1128363857       14.6128143490
  C        43.0874403319       17.2022609719       15.3719517088
  C        20.3177430614       17.9130015589       15.3222752288
  C        20.2998413595       17.8871356471       12.5092153678
  C        46.7855250265       17.2298826309        5.8904566951
  C        45.4822535449       17.1200159304        5.1770943206
  C        45.2656286676       16.1183230304        4.2187751710
  C        44.0778606944       16.0876660761        3.4926415293
  C        43.0779777878       17.0557355191        3.7081820162
  C        43.2845144861       18.0264348595        4.7060711547
  C        44.4734159298       18.0635233184        5.4272887193
  C        41.8327743160       17.0759516545        2.9105136129
  C        41.8582443039       17.0890567366        1.4896460853
  C        43.0779367963       17.1886757387        0.7486751712
  C        46.1534000242       26.6372460648        0.7262776117
  C        46.1624450361       26.6561151532        3.5359206102
  C        14.0444601460       17.8307464521        5.7084744372
  C        15.3643963321       17.9021219515        5.0160915547
  C        15.6392728449       18.9178016838        4.0883883850
  C        16.8678901103       18.9526967925        3.4328542848
  C        17.8487108219       17.9712709447        3.6800517991
  C        17.5805020940       16.9840727167        4.6455352203
  C        16.3539966903       16.9487334638        5.3045683272
  C        19.1161164041       17.9449698968        2.9120524045
  C        19.0935289827       17.9218111594        1.4906498935
  C        17.8744254422       17.8138497697        0.7486338871
  C        28.8088210420       14.0934150903       10.3951321903
  C        28.1919957176       12.9225834582       11.0844146041
  C        28.9103558998       12.1838656720       12.0361839131
  C        28.3079907016       11.1097253941       12.6865140649
  C        26.9734834892       10.7504176960       12.4086133487
  C        26.2769815615       11.4699454985       11.4212009766
  C        26.8769676515       12.5442952594       10.7695948856
  C        26.3016132744        9.6712289138       13.1677537733
  C        26.2861927308        9.6988736968       14.5885619363
  C        26.7872044237       10.8129002125       15.3339680118
  C        32.1818883395       21.2370163314       10.1418812863
  C        32.7799580466       22.3989004829       10.8647653623
  C        32.0324977805       23.0765280878       11.8400793684
  C        32.6041146267       24.1144128434       12.5695732892
  C        33.9387759502       24.5027376704       12.3440535897
  C        34.6691186836       23.8436146084       11.3373624310
  C        34.0998172432       22.7998328441       10.6102287334
  C        34.5666873032       25.5792097737       13.1434976780
  C        34.5565883130       25.5537354663       14.5652327981
  C        34.0461398247       24.4404350126       15.3053396034
  C        25.6777289438        8.6205880442       15.3073592320
  C        25.6667587691        8.6196652464       12.4940279138
  C        32.1069783990       21.2285613120        5.8840576925
  C        32.6968851326       22.3856311004        5.1464630458
  C        31.9543570412       23.0670725318        4.1692150480
  C        32.5375419461       24.0916055555        3.4269485041
  C        33.8758599685       24.4698110955        3.6498259105
  C        34.6001231506       23.8070802401        4.6590557137
  C        34.0228618639       22.7735863574        5.3923578734
  C        34.5165459653       25.5493531687        2.8634451277
  C        34.5282721689       25.5394397597        1.4417583888
  C        34.0301176849       24.4343260660        0.6822992008
  C        40.6210371401       17.0916661846        0.7659646040
  C        40.6023384896       17.1040894192        3.5758579494
  C        28.7403404228       14.0661115096        5.8182158037
  C        28.1321498227       12.9197927792        5.0801536086
  C        28.8588433186       12.2418276859        4.0895125796
  C        28.2772921300       11.1855306823        3.3923486651
  C        26.9531044080       10.7827227438        3.6586735643
  C        26.2438543018       11.4498528582        4.6752960350
  C        26.8236122961       12.5056397937        5.3752858218
  C        26.3085637055        9.6942309457        2.8864074614
  C        26.2914133168        9.7110305701        1.4646856933
  C        26.7875050315       10.8200505531        0.7098150072
  C        18.1354741738        3.1809696765       10.3172448731
  C        17.4062226184        4.2782713135       11.0158675766
  C        16.3904823853        3.9999936797       11.9433743224
  C        15.7428466679        5.0400297431       12.6068737674
  C        16.0948830269        6.3837089563       12.3671640693
  C        17.0843014112        6.6531676280       11.4034247519
  C        17.7332985227        5.6157591910       10.7383830958
  C        15.4705574218        7.4914361534       13.1301609785
  C        15.4859130167        7.4908131523       14.5518665782
  C        16.1875347587        6.4972471113       15.3050412025
  C        42.9459786657       31.8594988422       10.0728921423
  C        43.6462139586       30.7718620358       10.8169724920
  C        44.5918446814       31.0931651558       11.8029584199
  C        45.1975123967       30.0875841998       12.5506073847
  C        44.8710038512       28.7345306733       12.3357772725
  C        43.9450897483       28.4202250449       11.3226376857
  C        43.3362996974       29.4253888467       10.5746103844
  C        45.4886393400       27.6552306614       13.1389224489
  C        45.4928128757       27.6808644747       14.5606099897
  C        44.8056389675       28.6888614264       15.3072157686
  C        14.8568012760        8.5632152985       15.2642330780
  C        14.8752315650        8.5631730285       12.4515685458
  C        42.9464981874       31.9615708987        5.8090160395
  C        43.6915245410       30.8854626076        5.0953209534
  C        44.6561420581       31.1913774654        4.1230389231
  C        45.2776601546       30.1717870344        3.4053151659
  C        44.9540211394       28.8214552225        3.6430905768
  C        44.0205028325       28.5237801088        4.6538352654
  C        43.3922602604       29.5405527588        5.3660165591
  C        45.5630855726       27.7240676152        2.8578536996
  C        45.5333669978       27.7173673575        1.4365595157
  C        44.8269118578       28.7075002778        0.6836070163
  C        35.1346897289       26.6308900007        0.7358499974
  C        35.1285272677       26.6070305156        3.5459315787
  C        18.1485206842        3.2470107604        5.7066506490
  C        17.4300335195        4.3438818560        4.9972983371
  C        16.4147925059        4.0526478508        4.0737634267
  C        15.7665214179        5.0833089037        3.3983852179
  C        16.1213538328        6.4285073412        3.6210196448
  C        17.1126784701        6.7118599716        4.5783347336
  C        17.7603261424        5.6829211991        5.2580820219
  C        15.4907697933        7.5242143332        2.8486721461
  C        15.4968416019        7.5076778136        1.4275441054
  C        16.1937214642        6.5060503265        0.6808529903
  H        10.6724710486       12.4659310964        3.9044451640
  H        11.6946747429       10.5511082728        2.6625539917
  H        15.3915357525       11.1683039611        4.7725240904
  H        14.3510365283       13.0710929544        6.0177927864
  H        13.3760042229       11.6311167515        1.2013234571
  H        50.3227460515       22.7483242432        3.9868605284
  H        49.3196567297       24.6228063525        2.6808261180
  H        45.6422278496       24.1613113001        4.8637901433
  H        46.6630436175       22.2903768187        6.1720730129
  H        47.6299332247       23.5759097846        1.2462124746
  H        14.8720873618        8.5882398424        4.6085658307
  H        50.2871730810       22.7027380053       12.0602710617
  H        49.2691911994       24.5756110144       13.3603082820
  H        45.6104580077       24.1090426893       11.1462481635
  H        46.6525280956       22.2537436236        9.8319689929
  H        47.6079058090       23.5518672684       14.7968859917
  H        40.6534624692       17.1175198219       11.4244148705
  H        48.6871748192       14.0947975396        7.8000591546
  H        10.6813809151       12.4665744142       12.0932559858
  H        11.6896950383       10.5246654716       13.2969429340
  H        15.3936638415       11.1590715854       11.2056649359
  H        14.3650786051       13.0874867140        9.9903644961
  H        13.3757131873       11.6221100234       14.7531169531
  H        47.9301723776       14.2181583848        9.7107175348
  H        47.7800735492       14.3735994870        6.4953175422
  H        49.0833529741       18.5522790099       10.8672930048
  H        10.4160200598       14.1343229024        7.9987069395
  H        24.4805502181        3.0303783960        3.9134128824
  H        25.6188493338        4.8914738653        2.6875142809
  H        23.2480841186        7.7551092556        4.8501874633
  H        22.1276434515        5.8843340291        6.0771844383
  H        23.8014429500        5.7973009907        1.2670478980
  H        36.3748987442       32.1878232917        3.9695539096
  H        35.2528732422       30.3619347098        2.6884820014
  H        37.5261858622       27.4408465232        4.8798301170
  H        38.6274316774       29.2794047218        6.1703355068
  H        37.0221111074       29.4543387811        1.2683543173
  H        25.7409276618        8.6088608855        4.6513586758
  H        36.4485380604       32.2381217477       12.1063917043
  H        35.3369251179       30.4186066818       13.3993026631
  H        37.5298586039       27.4856040842       11.1417047725
  H        38.6157657100       29.3166819984        9.8356757707
  H        37.0388121056       29.4713231066       14.8202013370
  H        46.1092220492       26.5875015348       11.3855837992
  H        44.6682931535       35.1161808495        7.8139482430
  H        24.4313736980        3.0439006871       12.0923498143
  H        25.5577316884        4.8861684674       13.3437057184
  H        23.1589739826        7.7697483286       11.2396274560
  H        22.0440037007        5.9154839816        9.9884619516
  H        23.7774599746        5.7992730732       14.8182799044
  H        44.9539359296       34.3905287723        9.6952943203
  H        44.9018875078       34.2068336717        6.4906557417
  H        40.6657444223       33.2088032616       10.8530508947
  H        23.1503811068        1.9579401509        8.0054021698
  H        25.7952787206       19.6659414036        3.9295734131
  H        23.6287328413       19.7015419297        2.6953385994
  H        22.3574361656       16.1959632380        4.8380466022
  H        24.5333338254       16.1696716073        6.0662052740
  H        23.7221349347       17.6632586106        1.2494479330
  H        35.1630578349       15.4188157258        4.0066099964
  H        37.2811079404       15.3796297932        2.6923366214
  H        38.6896411440       18.8051405159        4.8799558345
  H        36.5623958235       18.8292714050        6.1962978183
  H        37.2270829748       17.3605759968        1.2487167685
  H        20.3526740757       17.9653344538        4.6687763369
  H        35.2045738840       15.4367385021       12.0550759267
  H        37.3385935489       15.3756680582       13.3515478418
  H        38.7249567356       18.8398750170       11.2118244874
  H        36.5866859468       18.8800713710        9.9107296076
  H        37.2440676789       17.3656138460       14.7969072186
  H        35.1531857441       26.6720176086       11.3943749869
  H        28.4998070028       21.0871375552        7.8855044586
  H        25.7591548952       19.6231687991       12.1666242869
  H        23.5731980399       19.6767489029       13.3805538283
  H        22.3059955079       16.1708947345       11.2361737130
  H        24.4921511201       16.1395654590       10.0186389144
  H        23.7028769766       17.6477543413       14.7996993340
  H        29.0005443687       21.7262371074        9.7448744215
  H        29.1877870651       21.7235282957        6.5629965070
  H        32.0754219634       18.5604415884       10.9260213667
  H        27.4007164934       19.0709726350        8.0779145164
  H        14.8528518055       19.6474904465       12.1403081207
  H        17.0161060553       19.6911565145       13.3820106819
  H        18.3029519958       16.1842417368       11.2503353882
  H        16.1356267231       16.1563204584       10.0084150457
  H        16.9217960008       17.6916002792       14.8440178041
  H        46.0945347400       15.4396855149       12.0656347409
  H        43.9719760530       15.3825687913       13.3770420490
  H        42.5575908746       18.8222843376       11.2153769442
  H        44.6797085626       18.8532310380        9.8923556278
  H        44.0295600755       17.3148262254       14.8430809779
  H        20.2952911421       17.9175222564       11.4210846577
  H        46.0440062787       15.3790593719        4.0441832403
  H        43.9121436024       15.3109034674        2.7493051447
  H        42.5167105575       18.7777202580        4.8786324230
  H        44.6550561267       18.8320594797        6.1745607675
  H        44.0127567045       17.2898394229        1.2923549954
  H        46.1992869836       26.6826623702        4.6233681114
  H        52.7411022010       21.0626146543        8.1946924590
  H        14.8802050485       19.6732777366        3.8977427985
  H        17.0808331000       19.7432293587        2.7164615692
  H        18.3294624645       16.2199955387        4.8433621054
  H        16.1310169161       16.1741457757        6.0342540904
  H        16.9403453129       17.7059170003        1.2917109233
  H        52.3222568744       21.6732312411        6.2943818552
  H        52.0131124333       21.7019476418        9.4956709566
  H        49.0671177358       18.6077327907        5.2043586269
  H        13.2474381492       19.0163724924        7.9772402825
  H        29.9389397458       12.4656037735       12.2506627938
  H        28.8665931056       10.5355976472       13.4226015722
  H        25.2458469557       11.2022806761       11.1997324560
  H        26.3371606431       13.1211695569       10.0227265604
  H        27.1478739396       11.6826207614       14.7933452381
  H        31.0068704129       22.7641003385       12.0205907473
  H        32.0195921895       24.6394346312       13.3218903919
  H        35.7022032158       24.1343283813       11.1578516271
  H        34.6686646448       22.2653548602        9.8528563062
  H        33.6913273100       23.5702286948       14.7605252111
  H        25.6990197917        8.5991389910       11.4061143918
  H        30.9175790284       22.7809852292        4.0044369378
  H        31.9565195758       24.6193081390        2.6736874139
  H        35.6353548874       24.0904989918        4.8377971316
  H        34.5876181288       22.2378194270        6.1518168584
  H        33.6631618736       23.5591623077        1.2115510004
  H        40.5954517726       17.0691306470        4.6636210115
  H        32.5055889765       14.1456057499        8.2488420184
  H        29.8796609516       12.5548124899        3.8825562304
  H        28.8494769675       10.6555142031        2.6340687440
  H        25.2191459064       11.1518447212        4.8876327076
  H        26.2731522922       13.0362743712        6.1485369308
  H        27.1485511788       11.6951551490        1.2420442116
  H        33.3066256067       14.2333336891        6.4638290983
  H        33.4081109800       14.4141730548        9.5948061132
  H        32.1641330672       18.4962587480        5.1759643426
  H        30.1924131852       14.1510355523        8.0726262674
  H        16.1183602162        2.9635040911       12.1297686093
  H        14.9533558109        4.8207230355       13.3225106099
  H        17.3668216768        7.6860194648       11.2103215470
  H        18.5153681104        5.8183120132       10.0105434113
  H        16.7541758134        5.7399737256       14.7715374035
  H        44.8281976791       32.1402358123       11.9771336399
  H        45.9374266363       30.3412877406       13.3065229973
  H        43.6822701694       27.3781744811       11.1525885986
  H        42.5996129625       29.1900726670        9.8100088046
  H        44.2301797561       29.4365430871       14.7689017516
  H        14.8514098114        8.5463545045       11.3633522285
  H        44.8996101667       32.2340643398        3.9315102768
  H        46.0245554519       30.4130159594        2.6520645498
  H        43.7636270096       27.4840427324        4.8454836100
  H        42.6457997225       29.3177512443        6.1245000588
  H        44.2683136775       29.4703210066        1.2181901752
  H        35.0904972655       26.6187989384        4.6335865486
  H        36.6051272486       35.1340219478        8.1806152480
  H        16.1436558446        3.0130813932        3.9040660547
  H        14.9742147892        4.8565226629        2.6882620033
  H        17.3962943883        7.7473078816        4.7551534006
  H        18.5432591070        5.8933012075        5.9828023885
  H        16.7651897958        5.7558557865        1.2193191103
  H        36.2785378497       34.4825692087        6.2732319380
  H        36.3809466491       34.2091283422        9.4997471483
  H        40.5805668658       33.2026337438        5.1536196617
  H        17.4706493436        1.9473482164        7.9741978691
  H        29.1493844738       19.3485768941       12.4365476128
  H        28.8187966433       18.7774028639        3.7723051558
  H        32.0744997739       15.9996860376        3.5679402341
  H        31.4329611792       15.6820290153       12.5418276050
  H        27.8440305697       17.6775202898       14.0100206983
  H        29.4090255239       15.2759364156       14.2128165178
  H        31.2026378545       20.3613679692        2.6636585062
  H        32.6679341620       17.4160341020        1.0545035271
  H        30.2308802386       15.2761978940        2.4551279842
  H        18.8531163876        0.8689652450       12.3351365818
  H        40.5279508568       35.2290827011        3.9521066052
  H        42.3240194536       34.4189831074        3.5905107451
  H        22.0876072639        0.6916625703       12.3518649917
  H        11.5969997968       18.7129150697       12.3824497394
  H        52.2647803346       18.4312511483        3.6772462165
  H        49.2555965451       16.4770754303        3.5844117985
  H        10.1502986003       15.7981813750       12.2927619979
  H        50.8500080936       17.6923094297        3.9543238833
  H        10.0460988648       17.3944331803       12.0520111487
  H        20.2142480754        0.0020165914       12.0420489294
  H        39.1836462893       36.1244109250        3.6863516377
 Ni        30.8618669504       17.8605932569        2.7460408580
 Ni        30.7738982236       16.3050763478        0.0798798090
 Ni        29.4194300990       18.1106221904       -0.1605360464
 Ni        29.9778812166       17.3423095467       12.9946959504
  O        10.6499809061       14.3650914501        5.4857898462
  O        12.6131418502       14.6575882672        6.5838920664
  O        49.1479010602       16.8459903331        7.9897926795
  O        50.3502595059       20.9360151885        5.6481760195
  O        48.3484383741       20.5934545336        6.6659725491
  O        11.0516598143       17.0539592514        6.5006534305
  O        50.3210593835       20.8816752871       10.4068836088
  O        48.3466234152       20.5868892146        9.3272148511
  O        49.5437742616       18.2483420137       10.0683903665
  O        12.3590063900       18.6245826012        7.9997481880
  O        48.6932772883       14.1484646676        6.7513401677
  O         8.2099259800       14.2103353707        9.3224959081
  O        10.7353564281       14.5067121689       10.6642899878
  O        12.5718376372       14.5826902726        9.3284656509
  O        22.8445014599        2.0430078172        5.4872289692
  O        21.6052989124        3.5921711557        6.5898155598
  O        42.0582529073       34.1374183418        7.9790466265
  O        37.9818872574       33.1388105823        5.5727058743
  O        39.2184685555       31.5765032568        6.6668227276
  O        20.3083643401        1.0395145632        6.5020399236
  O        38.0243898648       33.1853375785       10.4152633992
  O        39.2190907128       31.5836424671        9.3264942319
  O        40.6521418796       33.7692788499       10.0602840760
  O        18.2553503340        1.3762096008        7.9969473312
  O        44.6222417351       35.1005557411        6.7587605315
  O        24.2054269816        0.0000823528        9.3208438377
  O        22.7529953256        2.0581378963       10.5839618139
  O        21.6241800943        3.5958643489        9.3421707490
  O        27.4924750821       18.7481308047        5.4896178208
  O        26.7607972529       16.9347986147        6.6533512629
  O        30.6669403920       19.4102000775        8.0080943142
  O        33.5779336508       16.2745061490        5.6599623650
  O        34.2751083553       18.1614282181        6.7317086449
  O        29.5745794770       17.0541709435        6.5766053680
  O        33.6084458271       16.3236494316       10.4071533254
  O        34.3040136888       18.2422279815        9.4038465527
  O        31.6584309438       18.3159447408       10.0823247384
  O        30.2965701439       15.1159310377        8.0811321277
  O        28.5517389953       21.0353460354        6.8329494875
  O        28.5125416084       20.9587674999        9.4013259372
  O        27.4588851596       18.6796722906       10.6567265059
  O        26.6943670065       16.9283006085        9.4115487350
  O        13.1494255713       18.6929449187       10.5875821438
  O        13.9196621148       16.9162408527        9.4049281913
  O        50.5960978189       19.3502338298        8.0206692424
  O        47.6840862431       16.3266307848       10.4169546976
  O        46.9513918838       18.1755221748        9.3249512455
  O        11.0696338546       17.0156536404        9.4897332096
  O        47.6769276009       16.3353497250        5.6535475276
  O        46.9271081585       18.2356282727        6.6644683021
  O        49.5687077447       18.3176345391        5.9822752387
  O        10.3188284156       15.1001895691        7.9970587860
  O        52.6706060061       21.0277268224        9.2418233239
  O        12.1468327672       20.8911958326        6.6732352823
  O        13.1079346886       18.6135809477        5.3256268976
  O        13.9566915490       16.9867762330        6.6656455380
  O        29.9923878640       14.4430369730       10.7330311775
  O        28.0877356053       14.6534573636        9.4969347758
  O        32.0769050827       16.8532600359        8.0600953783
  O        30.9658672117       20.9522126535       10.4036151051
  O        32.9470352860       20.5994838845        9.3334304958
  O        29.5642350546       17.0711347469        9.5688897667
  O        30.8778522771       20.9433229339        5.6522937870
  O        32.8802047844       20.5857186316        6.6652223359
  O        31.6832142039       18.2515775997        5.9828541482
  O        28.2871903731       18.6752281000        8.0626031436
  O        32.4921699520       14.2124235437        9.3269110208
  O        32.4034163650       14.2166429009        6.8225706292
  O        29.9138442619       14.4383012773        5.4863980243
  O        28.0350166048       14.5888772600        6.7501880694
  O        17.8892280760        1.9666017136       10.6627454822
  O        18.9561714922        3.5270825575        9.4079521361
  O        39.1686769596       34.1388776581        7.9972590344
  O        43.2803010232       33.0589138642       10.3318092458
  O        42.0345281701       31.5064866912        9.2416584039
  O        20.3175370655        1.0367048573        9.4802711083
  O        43.2759799839       33.1826105467        5.5748999779
  O        42.0052205326       31.5841573187        6.5829520237
  O        40.5791008548       33.7750011479        5.9359620801
  O        22.3673837225        1.3845612026        7.9978944929
  O        36.6727591690       35.0997564046        9.2333017731
  O        16.4454997622        0.0643622049        6.6683707614
  O        17.9365118865        2.0434301190        5.3263220524
  O        18.9190070770        3.5931194029        6.6659396859
  O        29.7395408333       18.8437796186        4.0830158293
  O        29.8620753905       18.9108467642       11.9284897397
  O        31.2666071815       16.3321668739        4.0040176910
  O        31.3468659236       16.4856228954       11.9911571425
  O        32.0237256650       16.7919323441        1.4302219429
  O        29.8304860191       15.0194769834        1.5857445210
  O        30.2068207700       15.8317750073       14.2548951327
  O        31.6398445734       19.7817005743        2.0074198824
  O        28.6755562025       18.1789521168       14.0881902634
  O        39.4567557985       35.2438028447        4.0019699306
  O        19.1409492118        0.0044242417       11.9905283358
  O        41.9695473229       35.1727648501        4.0872192357
  O        21.6910995492       -0.0695545098       11.8959636418
  O        51.3650111206       18.6143235861        4.0054838934
  O        10.7512128153       18.7471616842       11.9048884730
  O        50.0800333689       16.4128386132        4.0916871487
  O         9.5244676146       16.4830529694       11.9912213000
 Zr         9.2968026407       16.0526839747        6.1824698132
 Zr        49.8362083376       16.0066326281        9.7464228036
 Zr        22.0733366989        0.0298779315        6.1890688076
 Zr        42.4609798761       35.1534913550        9.8010623211
 Zr        29.6040125403       19.0822410770        6.2496806119
 Zr        29.5858853812       19.1866085186        9.8116204951
 Zr        11.0379408511       19.0519846316        9.8277546618
 Zr        11.0435686618       19.1549309994        6.2511973704
 Zr        31.3434876731       16.0948036750        9.8532021470
 Zr        31.3667831076       16.0012552655        6.2562836328
 Zr        18.6010976783       -0.0015341169        9.7633585049
 Zr        18.5065183304       -0.0074542481        6.2138304742
 Zr        12.3016870793       16.3235444156        7.9905419130
 Zr        48.6161872827       18.8331415750        8.0104113074
 Zr        20.3151503722        2.4733155298        7.9904923091
 Zr        40.6436173546       32.6871850357        7.9784850954
 Zr        28.3439288514       16.3326806055        8.0874081982
 Zr        32.6269998991       18.8314460843        8.0453504615
  H        28.9029865704       15.3015753572        1.6644548076
  H        31.0234163078       19.7583970849        1.2412200331
  H        29.6934606541       18.2096489176        1.3736234250
